data_image0
_cell_length_a       7.52053
_cell_length_b       7.52053
_cell_length_c       10.5768
_cell_angle_alpha    90
_cell_angle_beta     90
_cell_angle_gamma    90

_symmetry_space_group_name_H-M    "P 1"
_symmetry_int_tables_number       1

loop_
  _symmetry_equiv_pos_as_xyz
  'x, y, z'

loop_
  _atom_site_label
  _atom_site_occupancy
  _atom_site_fract_x
  _atom_site_fract_y
  _atom_site_fract_z
  _atom_site_thermal_displace_type
  _atom_site_B_iso_or_equiv
  _atom_site_type_symbol
  Ag1      1.0000 0.50000  0.00000  0.20316  Biso   1.000  Ag
  Ag2      1.0000 0.00000  0.50000  0.79684  Biso   1.000  Ag
  Ag3      1.0000 0.50000  0.00000  0.49974  Biso   1.000  Ag
  Ag4      1.0000 0.00000  0.50000  0.50026  Biso   1.000  Ag
  Ag5      1.0000 0.79824  0.88967  0.65818  Biso   1.000  Ag
  Ag6      1.0000 0.11033  0.79824  0.34182  Biso   1.000  Ag
  Ag7      1.0000 0.88967  0.20176  0.34182  Biso   1.000  Ag
  Ag8      1.0000 0.20176  0.11033  0.65818  Biso   1.000  Ag
  Ag9      1.0000 0.37231  0.70297  0.65476  Biso   1.000  Ag
  Ag10     1.0000 0.29703  0.37231  0.34524  Biso   1.000  Ag
  Ag11     1.0000 0.70297  0.62769  0.34524  Biso   1.000  Ag
  Ag12     1.0000 0.62769  0.29703  0.65476  Biso   1.000  Ag
  Ag13     1.0000 0.59196  0.73381  0.87526  Biso   1.000  Ag
  Ag14     1.0000 0.26619  0.59196  0.12474  Biso   1.000  Ag
  Ag15     1.0000 0.73381  0.40804  0.12474  Biso   1.000  Ag
  Ag16     1.0000 0.40804  0.26619  0.87526  Biso   1.000  Ag
  Ag17     1.0000 0.23982  0.90490  0.88332  Biso   1.000  Ag
  Ag18     1.0000 0.09510  0.23982  0.11668  Biso   1.000  Ag
  Ag19     1.0000 0.90490  0.76018  0.11668  Biso   1.000  Ag
  Ag20     1.0000 0.76018  0.09510  0.88332  Biso   1.000  Ag
  F1       1.0000 0.94224  0.79278  0.90313  Biso   1.000  F 
  F2       1.0000 0.20722  0.94224  0.09687  Biso   1.000  F 
  F3       1.0000 0.79278  0.05776  0.09687  Biso   1.000  F 
  F4       1.0000 0.05776  0.20722  0.90313  Biso   1.000  F 
  F5       1.0000 0.71280  0.44637  0.89897  Biso   1.000  F 
  F6       1.0000 0.55363  0.71280  0.10103  Biso   1.000  F 
  F7       1.0000 0.44637  0.28720  0.10103  Biso   1.000  F 
  F8       1.0000 0.28720  0.55363  0.89897  Biso   1.000  F 
  F9       1.0000 0.05414  0.77495  0.60391  Biso   1.000  F 
  F10      1.0000 0.22505  0.05414  0.39609  Biso   1.000  F 
  F11      1.0000 0.77495  0.94586  0.39609  Biso   1.000  F 
  F12      1.0000 0.94586  0.22505  0.60391  Biso   1.000  F 
  F13      1.0000 0.29197  0.42985  0.60473  Biso   1.000  F 
  F14      1.0000 0.57015  0.29197  0.39527  Biso   1.000  F 
  F15      1.0000 0.42985  0.70803  0.39527  Biso   1.000  F 
  F16      1.0000 0.70803  0.57015  0.60473  Biso   1.000  F 
  C1       1.0000 0.42089  0.96190  0.73229  Biso   1.000  C 
  C2       1.0000 0.03810  0.42089  0.26771  Biso   1.000  C 
  C3       1.0000 0.96190  0.57911  0.26771  Biso   1.000  C 
  C4       1.0000 0.57911  0.03810  0.73229  Biso   1.000  C 
