data_image0
_cell_length_a       7.35555
_cell_length_b       7.35827
_cell_length_c       10.6285
_cell_angle_alpha    90
_cell_angle_beta     90
_cell_angle_gamma    90

_symmetry_space_group_name_H-M    "P 1"
_symmetry_int_tables_number       1

loop_
  _symmetry_equiv_pos_as_xyz
  'x, y, z'

loop_
  _atom_site_label
  _atom_site_occupancy
  _atom_site_fract_x
  _atom_site_fract_y
  _atom_site_fract_z
  _atom_site_thermal_displace_type
  _atom_site_B_iso_or_equiv
  _atom_site_type_symbol
  Cs1      1.0000 0.25000  0.97480  0.36975  Biso   1.000  Cs
  Cs2      1.0000 0.25000  0.47480  0.13025  Biso   1.000  Cs
  Cs3      1.0000 0.75000  0.02520  0.63025  Biso   1.000  Cs
  Cs4      1.0000 0.75000  0.52520  0.86975  Biso   1.000  Cs
  Ag1      1.0000 0.25000  0.79079  0.74285  Biso   1.000  Ag
  Ag2      1.0000 0.25000  0.29079  0.75715  Biso   1.000  Ag
  Ag3      1.0000 0.75000  0.20921  0.25715  Biso   1.000  Ag
  Ag4      1.0000 0.75000  0.70921  0.24285  Biso   1.000  Ag
  Al1      1.0000 0.00000  0.50000  0.50000  Biso   1.000  Al
  Al2      1.0000 0.50000  0.00000  0.00000  Biso   1.000  Al
  Al3      1.0000 0.50000  0.50000  0.50000  Biso   1.000  Al
  Al4      1.0000 0.00000  0.00000  0.00000  Biso   1.000  Al
  F1       1.0000 0.25000  0.54669  0.84407  Biso   1.000  F 
  F2       1.0000 0.25000  0.04669  0.65593  Biso   1.000  F 
  F3       1.0000 0.75000  0.45331  0.15593  Biso   1.000  F 
  F4       1.0000 0.75000  0.95331  0.34407  Biso   1.000  F 
  F5       1.0000 0.25000  0.95838  0.00598  Biso   1.000  F 
  F6       1.0000 0.25000  0.45838  0.49402  Biso   1.000  F 
  F7       1.0000 0.75000  0.04162  0.99402  Biso   1.000  F 
  F8       1.0000 0.75000  0.54162  0.50598  Biso   1.000  F 
  F9       1.0000 0.01228  0.62304  0.35096  Biso   1.000  F 
  F10      1.0000 0.48772  0.12304  0.14904  Biso   1.000  F 
  F11      1.0000 0.51228  0.37696  0.64904  Biso   1.000  F 
  F12      1.0000 0.98772  0.87696  0.85096  Biso   1.000  F 
  F13      1.0000 0.98772  0.37696  0.64904  Biso   1.000  F 
  F14      1.0000 0.51228  0.87696  0.85096  Biso   1.000  F 
  F15      1.0000 0.48772  0.62304  0.35096  Biso   1.000  F 
  F16      1.0000 0.01228  0.12304  0.14904  Biso   1.000  F 
  F17      1.0000 0.03579  0.71194  0.58438  Biso   1.000  F 
  F18      1.0000 0.46421  0.21194  0.91562  Biso   1.000  F 
  F19      1.0000 0.53579  0.28806  0.41562  Biso   1.000  F 
  F20      1.0000 0.96421  0.78806  0.08438  Biso   1.000  F 
  F21      1.0000 0.96421  0.28806  0.41562  Biso   1.000  F 
  F22      1.0000 0.53579  0.78806  0.08438  Biso   1.000  F 
  F23      1.0000 0.46421  0.71194  0.58438  Biso   1.000  F 
  F24      1.0000 0.03579  0.21194  0.91562  Biso   1.000  F 
