data_image0
_cell_length_a       8.96301
_cell_length_b       9.74934
_cell_length_c       6.36995
_cell_angle_alpha    90
_cell_angle_beta     90
_cell_angle_gamma    90

_symmetry_space_group_name_H-M    "P 1"
_symmetry_int_tables_number       1

loop_
  _symmetry_equiv_pos_as_xyz
  'x, y, z'

loop_
  _atom_site_label
  _atom_site_occupancy
  _atom_site_fract_x
  _atom_site_fract_y
  _atom_site_fract_z
  _atom_site_thermal_displace_type
  _atom_site_B_iso_or_equiv
  _atom_site_type_symbol
  Hg1      1.0000 0.24174  0.03256  0.28924  Biso   1.000  Hg
  Hg2      1.0000 0.74174  0.46744  0.28924  Biso   1.000  Hg
  Hg3      1.0000 0.25826  0.53256  0.28924  Biso   1.000  Hg
  Hg4      1.0000 0.24174  0.03256  0.71076  Biso   1.000  Hg
  Hg5      1.0000 0.75826  0.96744  0.71076  Biso   1.000  Hg
  Hg6      1.0000 0.25826  0.53256  0.71076  Biso   1.000  Hg
  Hg7      1.0000 0.74174  0.46744  0.71076  Biso   1.000  Hg
  Hg8      1.0000 0.75826  0.96744  0.28924  Biso   1.000  Hg
  O1       1.0000 0.43764  0.19946  0.23203  Biso   1.000  O 
  O2       1.0000 0.93764  0.30054  0.23203  Biso   1.000  O 
  O3       1.0000 0.06236  0.69946  0.23203  Biso   1.000  O 
  O4       1.0000 0.43764  0.19946  0.76797  Biso   1.000  O 
  O5       1.0000 0.56236  0.80054  0.76797  Biso   1.000  O 
  O6       1.0000 0.06236  0.69946  0.76797  Biso   1.000  O 
  O7       1.0000 0.93764  0.30054  0.76797  Biso   1.000  O 
  O8       1.0000 0.56236  0.80054  0.23203  Biso   1.000  O 
  Ag1      1.0000 0.47056  0.35703  0.50000  Biso   1.000  Ag
  Ag2      1.0000 0.97056  0.14297  0.50000  Biso   1.000  Ag
  Ag3      1.0000 0.02944  0.85703  0.50000  Biso   1.000  Ag
  Ag4      1.0000 0.52944  0.64297  0.50000  Biso   1.000  Ag
  As1      1.0000 0.03552  0.28676  0.00000  Biso   1.000  As
  As2      1.0000 0.53552  0.21324  0.00000  Biso   1.000  As
  As3      1.0000 0.46448  0.78676  0.00000  Biso   1.000  As
  As4      1.0000 0.96448  0.71324  0.00000  Biso   1.000  As
  O9       1.0000 0.11661  0.12560  0.00000  Biso   1.000  O 
  O10      1.0000 0.61661  0.37440  0.00000  Biso   1.000  O 
  O11      1.0000 0.38339  0.62560  0.00000  Biso   1.000  O 
  O12      1.0000 0.88339  0.87440  0.00000  Biso   1.000  O 
  O13      1.0000 0.16969  0.41630  0.00000  Biso   1.000  O 
  O14      1.0000 0.66969  0.08370  0.00000  Biso   1.000  O 
  O15      1.0000 0.33031  0.91630  0.00000  Biso   1.000  O 
  O16      1.0000 0.83031  0.58370  0.00000  Biso   1.000  O 
