data_image0
_cell_length_a       4.00521
_cell_length_b       6.02183
_cell_length_c       12.0238
_cell_angle_alpha    90
_cell_angle_beta     90
_cell_angle_gamma    90

_symmetry_space_group_name_H-M    "P 1"
_symmetry_int_tables_number       1

loop_
  _symmetry_equiv_pos_as_xyz
  'x, y, z'

loop_
  _atom_site_label
  _atom_site_occupancy
  _atom_site_fract_x
  _atom_site_fract_y
  _atom_site_fract_z
  _atom_site_thermal_displace_type
  _atom_site_B_iso_or_equiv
  _atom_site_type_symbol
  Ag1      1.0000 0.24789  0.06056  0.83279  Biso   1.000  Ag
  Ag2      1.0000 0.74789  0.93944  0.16721  Biso   1.000  Ag
  Ag3      1.0000 0.74789  0.56056  0.66721  Biso   1.000  Ag
  Ag4      1.0000 0.24789  0.43944  0.33279  Biso   1.000  Ag
  As1      1.0000 0.24728  0.36538  0.98857  Biso   1.000  As
  As2      1.0000 0.74728  0.63462  0.01143  Biso   1.000  As
  As3      1.0000 0.74728  0.86538  0.51143  Biso   1.000  As
  As4      1.0000 0.24728  0.13462  0.48857  Biso   1.000  As
  S1       1.0000 0.24782  0.29835  0.65721  Biso   1.000  S 
  S2       1.0000 0.74782  0.70165  0.34279  Biso   1.000  S 
  S3       1.0000 0.74782  0.79835  0.84279  Biso   1.000  S 
  S4       1.0000 0.24782  0.20165  0.15721  Biso   1.000  S 
