data_image0
_cell_length_a       4.56721
_cell_length_b       9.00098
_cell_length_c       10.2415
_cell_angle_alpha    56.4199
_cell_angle_beta     90
_cell_angle_gamma    90

_symmetry_space_group_name_H-M    "P 1"
_symmetry_int_tables_number       1

loop_
  _symmetry_equiv_pos_as_xyz
  'x, y, z'

loop_
  _atom_site_label
  _atom_site_occupancy
  _atom_site_fract_x
  _atom_site_fract_y
  _atom_site_fract_z
  _atom_site_thermal_displace_type
  _atom_site_B_iso_or_equiv
  _atom_site_type_symbol
  Au1      1.0000 0.00000  1.00000  0.50000  Biso   1.000  Au
  Au2      1.0000 0.00000  0.00000  0.00000  Biso   1.000  Au
  Ag1      1.0000 0.48709  0.50000  0.25000  Biso   1.000  Ag
  Ag2      1.0000 0.51291  0.50000  0.75000  Biso   1.000  Ag
  Te1      1.0000 0.97039  0.70265  0.79220  Biso   1.000  Te
  Te2      1.0000 0.97039  0.29735  0.70780  Biso   1.000  Te
  Te3      1.0000 0.02961  0.29735  0.20780  Biso   1.000  Te
  Te4      1.0000 0.02961  0.70265  0.29220  Biso   1.000  Te
  Te5      1.0000 0.60413  0.19391  0.54591  Biso   1.000  Te
  Te6      1.0000 0.60413  0.80609  0.95409  Biso   1.000  Te
  Te7      1.0000 0.39587  0.80609  0.45409  Biso   1.000  Te
  Te8      1.0000 0.39587  0.19391  0.04591  Biso   1.000  Te
