data_image0
_cell_length_a       8.77248
_cell_length_b       8.77248
_cell_length_c       7.54795
_cell_angle_alpha    70.4072
_cell_angle_beta     70.4072
_cell_angle_gamma    91.4185

_symmetry_space_group_name_H-M    "P 1"
_symmetry_int_tables_number       1

loop_
  _symmetry_equiv_pos_as_xyz
  'x, y, z'

loop_
  _atom_site_label
  _atom_site_occupancy
  _atom_site_fract_x
  _atom_site_fract_y
  _atom_site_fract_z
  _atom_site_thermal_displace_type
  _atom_site_B_iso_or_equiv
  _atom_site_type_symbol
  Ag1      1.0000 0.98900  0.01100  0.00000  Biso   1.000  Ag
  Ag2      1.0000 0.01100  0.98900  0.50000  Biso   1.000  Ag
  Cu1      1.0000 0.26549  0.73451  0.00000  Biso   1.000  Cu
  Cu2      1.0000 0.73451  0.26549  0.50000  Biso   1.000  Cu
  Cu3      1.0000 0.37855  0.06424  0.11054  Biso   1.000  Cu
  Cu4      1.0000 0.93576  0.62145  0.88946  Biso   1.000  Cu
  Cu5      1.0000 0.62145  0.93576  0.38946  Biso   1.000  Cu
  Cu6      1.0000 0.06424  0.37855  0.61054  Biso   1.000  Cu
  Cu7      1.0000 0.49446  0.50554  0.50000  Biso   1.000  Cu
  Cu8      1.0000 0.50554  0.49446  0.00000  Biso   1.000  Cu
  As1      1.0000 0.72504  0.27496  0.00000  Biso   1.000  As
  As2      1.0000 0.27496  0.72504  0.50000  Biso   1.000  As
  As3      1.0000 0.65363  0.89225  0.86745  Biso   1.000  As
  As4      1.0000 0.10775  0.34637  0.13256  Biso   1.000  As
  As5      1.0000 0.34637  0.10775  0.63256  Biso   1.000  As
  As6      1.0000 0.89225  0.65363  0.36745  Biso   1.000  As
  O1       1.0000 0.17220  0.16116  0.13943  Biso   1.000  O 
  O2       1.0000 0.83884  0.82780  0.86057  Biso   1.000  O 
  O3       1.0000 0.82780  0.83884  0.36057  Biso   1.000  O 
  O4       1.0000 0.16116  0.17220  0.63943  Biso   1.000  O 
  O5       1.0000 0.50480  0.72735  0.92474  Biso   1.000  O 
  O6       1.0000 0.27265  0.49520  0.07526  Biso   1.000  O 
  O7       1.0000 0.49520  0.27265  0.57526  Biso   1.000  O 
  O8       1.0000 0.72735  0.50480  0.42474  Biso   1.000  O 
  O9       1.0000 0.51976  0.27386  0.00800  Biso   1.000  O 
  O10      1.0000 0.72614  0.48024  0.99200  Biso   1.000  O 
  O11      1.0000 0.48024  0.72614  0.49200  Biso   1.000  O 
  O12      1.0000 0.27386  0.51976  0.50800  Biso   1.000  O 
  O13      1.0000 0.31382  0.97603  0.87522  Biso   1.000  O 
  O14      1.0000 0.02397  0.68618  0.12478  Biso   1.000  O 
  O15      1.0000 0.68618  0.02397  0.62478  Biso   1.000  O 
  O16      1.0000 0.97603  0.31382  0.37522  Biso   1.000  O 
  O17      1.0000 0.58587  0.97310  0.05350  Biso   1.000  O 
  O18      1.0000 0.02690  0.41413  0.94650  Biso   1.000  O 
  O19      1.0000 0.41413  0.02690  0.44650  Biso   1.000  O 
  O20      1.0000 0.97310  0.58587  0.55350  Biso   1.000  O 
  O21      1.0000 0.75243  0.15549  0.21511  Biso   1.000  O 
  O22      1.0000 0.84451  0.24757  0.78489  Biso   1.000  O 
  O23      1.0000 0.24757  0.84451  0.28489  Biso   1.000  O 
  O24      1.0000 0.15549  0.75243  0.71511  Biso   1.000  O 
