data_image0
_cell_length_a       9.31028
_cell_length_b       9.31028
_cell_length_c       5.44339
_cell_angle_alpha    88.7095
_cell_angle_beta     88.7095
_cell_angle_gamma    119.897

_symmetry_space_group_name_H-M    "P 1"
_symmetry_int_tables_number       1

loop_
  _symmetry_equiv_pos_as_xyz
  'x, y, z'

loop_
  _atom_site_label
  _atom_site_occupancy
  _atom_site_fract_x
  _atom_site_fract_y
  _atom_site_fract_z
  _atom_site_thermal_displace_type
  _atom_site_B_iso_or_equiv
  _atom_site_type_symbol
  Ag1      1.0000 0.50000  0.50000  0.00000  Biso   1.000  Ag
  Ag2      1.0000 1.00000  1.00000  0.50000  Biso   1.000  Ag
  Se1      1.0000 0.72508  0.72508  0.38954  Biso   1.000  Se
  Se2      1.0000 0.27492  0.27492  0.61046  Biso   1.000  Se
  Se3      1.0000 0.72066  0.49489  0.60550  Biso   1.000  Se
  Se4      1.0000 0.49489  0.72066  0.60550  Biso   1.000  Se
  Se5      1.0000 0.27934  0.50511  0.39450  Biso   1.000  Se
  Se6      1.0000 0.50511  0.27934  0.39450  Biso   1.000  Se
  As1      1.0000 0.17500  0.82500  0.00000  Biso   1.000  As
  As2      1.0000 0.82500  0.17500  0.00000  Biso   1.000  As
  F1       1.0000 0.98083  0.79004  0.88571  Biso   1.000  F 
  F2       1.0000 0.79004  0.98083  0.88571  Biso   1.000  F 
  F3       1.0000 0.01917  0.20996  0.11429  Biso   1.000  F 
  F4       1.0000 0.20996  0.01917  0.11429  Biso   1.000  F 
  F5       1.0000 0.06859  0.72592  0.28113  Biso   1.000  F 
  F6       1.0000 0.72592  0.06859  0.28113  Biso   1.000  F 
  F7       1.0000 0.93141  0.27408  0.71887  Biso   1.000  F 
  F8       1.0000 0.27408  0.93141  0.71887  Biso   1.000  F 
  F9       1.0000 0.36319  0.85825  0.11886  Biso   1.000  F 
  F10      1.0000 0.85825  0.36319  0.11886  Biso   1.000  F 
  F11      1.0000 0.63681  0.14175  0.88114  Biso   1.000  F 
  F12      1.0000 0.14175  0.63681  0.88114  Biso   1.000  F 
