data_image0
_cell_length_a       7.2781
_cell_length_b       7.2781
_cell_length_c       11.6107
_cell_angle_alpha    90
_cell_angle_beta     90
_cell_angle_gamma    47.8796

_symmetry_space_group_name_H-M    "P 1"
_symmetry_int_tables_number       1

loop_
  _symmetry_equiv_pos_as_xyz
  'x, y, z'

loop_
  _atom_site_label
  _atom_site_occupancy
  _atom_site_fract_x
  _atom_site_fract_y
  _atom_site_fract_z
  _atom_site_thermal_displace_type
  _atom_site_B_iso_or_equiv
  _atom_site_type_symbol
  Au1      1.0000 0.00000  0.00000  0.50000  Biso   1.000  Au
  Au2      1.0000 0.00000  0.00000  0.00000  Biso   1.000  Au
  Ag1      1.0000 0.59605  0.40395  0.75000  Biso   1.000  Ag
  Ag2      1.0000 0.40395  0.59605  0.25000  Biso   1.000  Ag
  Ba1      1.0000 0.64587  0.64587  0.00000  Biso   1.000  Ba
  Ba2      1.0000 0.64587  0.64587  0.50000  Biso   1.000  Ba
  Ba3      1.0000 0.35413  0.35413  0.00000  Biso   1.000  Ba
  Ba4      1.0000 0.35413  0.35413  0.50000  Biso   1.000  Ba
  Ba5      1.0000 0.07978  0.21073  0.25000  Biso   1.000  Ba
  Ba6      1.0000 0.21073  0.07978  0.75000  Biso   1.000  Ba
  Ba7      1.0000 0.92022  0.78927  0.75000  Biso   1.000  Ba
  Ba8      1.0000 0.78927  0.92022  0.25000  Biso   1.000  Ba
  O1       1.0000 0.15465  0.15465  0.50000  Biso   1.000  O 
  O2       1.0000 0.15465  0.15465  0.00000  Biso   1.000  O 
  O3       1.0000 0.84535  0.84535  0.50000  Biso   1.000  O 
  O4       1.0000 0.84535  0.84535  0.00000  Biso   1.000  O 
  O5       1.0000 0.26797  0.73203  0.89104  Biso   1.000  O 
  O6       1.0000 0.73203  0.26797  0.10896  Biso   1.000  O 
  O7       1.0000 0.26797  0.73203  0.60896  Biso   1.000  O 
  O8       1.0000 0.73203  0.26797  0.39104  Biso   1.000  O 
  O9       1.0000 0.24029  0.44049  0.25000  Biso   1.000  O 
  O10      1.0000 0.44049  0.24029  0.75000  Biso   1.000  O 
  O11      1.0000 0.75971  0.55951  0.75000  Biso   1.000  O 
  O12      1.0000 0.55951  0.75971  0.25000  Biso   1.000  O 
