data_image0
_cell_length_a       7.88239
_cell_length_b       7.88239
_cell_length_c       21.7017
_cell_angle_alpha    79.5861
_cell_angle_beta     79.5861
_cell_angle_gamma    58.1949

_symmetry_space_group_name_H-M    "P 1"
_symmetry_int_tables_number       1

loop_
  _symmetry_equiv_pos_as_xyz
  'x, y, z'

loop_
  _atom_site_label
  _atom_site_occupancy
  _atom_site_fract_x
  _atom_site_fract_y
  _atom_site_fract_z
  _atom_site_thermal_displace_type
  _atom_site_B_iso_or_equiv
  _atom_site_type_symbol
  Au1      1.0000 1.00000  1.00000  0.50000  Biso   1.000  Au
  Au2      1.0000 0.00000  0.00000  0.00000  Biso   1.000  Au
  Au3      1.0000 0.41638  0.39513  0.30363  Biso   1.000  Au
  Au4      1.0000 0.60487  0.58362  0.19637  Biso   1.000  Au
  Au5      1.0000 0.58362  0.60487  0.69638  Biso   1.000  Au
  Au6      1.0000 0.39513  0.41638  0.80363  Biso   1.000  Au
  Ag1      1.0000 0.99498  0.00502  0.25000  Biso   1.000  Ag
  Ag2      1.0000 0.00502  0.99498  0.75000  Biso   1.000  Ag
  Rb1      1.0000 0.27040  0.32585  0.09302  Biso   1.000  Rb
  Rb2      1.0000 0.67415  0.72960  0.40698  Biso   1.000  Rb
  Rb3      1.0000 0.72960  0.67415  0.90698  Biso   1.000  Rb
  Rb4      1.0000 0.32585  0.27040  0.59302  Biso   1.000  Rb
  I1       1.0000 0.15775  0.22074  0.43883  Biso   1.000  I 
  I2       1.0000 0.77926  0.84225  0.06117  Biso   1.000  I 
  I3       1.0000 0.84225  0.77926  0.56117  Biso   1.000  I 
  I4       1.0000 0.22074  0.15775  0.93883  Biso   1.000  I 
  I5       1.0000 0.32144  0.77744  0.56588  Biso   1.000  I 
  I6       1.0000 0.22256  0.67856  0.93412  Biso   1.000  I 
  I7       1.0000 0.67856  0.22256  0.43412  Biso   1.000  I 
  I8       1.0000 0.77744  0.32144  0.06588  Biso   1.000  I 
  I9       1.0000 0.19890  0.72965  0.35523  Biso   1.000  I 
  I10      1.0000 0.27035  0.80110  0.14477  Biso   1.000  I 
  I11      1.0000 0.80110  0.27035  0.64477  Biso   1.000  I 
  I12      1.0000 0.72965  0.19890  0.85523  Biso   1.000  I 
  I13      1.0000 0.60405  0.05954  0.25176  Biso   1.000  I 
  I14      1.0000 0.94046  0.39595  0.24824  Biso   1.000  I 
  I15      1.0000 0.39595  0.94046  0.74824  Biso   1.000  I 
  I16      1.0000 0.05954  0.60405  0.75176  Biso   1.000  I 
