data_image0
_cell_length_a       8.68865
_cell_length_b       8.68865
_cell_length_c       8.68865
_cell_angle_alpha    107.275
_cell_angle_beta     107.275
_cell_angle_gamma    107.275

_symmetry_space_group_name_H-M    "P 1"
_symmetry_int_tables_number       1

loop_
  _symmetry_equiv_pos_as_xyz
  'x, y, z'

loop_
  _atom_site_label
  _atom_site_occupancy
  _atom_site_fract_x
  _atom_site_fract_y
  _atom_site_fract_z
  _atom_site_thermal_displace_type
  _atom_site_B_iso_or_equiv
  _atom_site_type_symbol
  Ag1      1.0000 0.27125  0.09343  0.67765  Biso   1.000  Ag
  Ag2      1.0000 0.09343  0.67765  0.27125  Biso   1.000  Ag
  Ag3      1.0000 0.67765  0.27125  0.09343  Biso   1.000  Ag
  Ag4      1.0000 0.72875  0.90657  0.32235  Biso   1.000  Ag
  Ag5      1.0000 0.90657  0.32235  0.72875  Biso   1.000  Ag
  Ag6      1.0000 0.32235  0.72875  0.90657  Biso   1.000  Ag
  As1      1.0000 0.41957  0.13340  0.34564  Biso   1.000  As
  As2      1.0000 0.13340  0.34564  0.41957  Biso   1.000  As
  As3      1.0000 0.34564  0.41957  0.13340  Biso   1.000  As
  As4      1.0000 0.58043  0.86660  0.65436  Biso   1.000  As
  As5      1.0000 0.86660  0.65436  0.58043  Biso   1.000  As
  As6      1.0000 0.65436  0.58043  0.86660  Biso   1.000  As
  S1       1.0000 0.75574  0.61642  0.15135  Biso   1.000  S 
  S2       1.0000 0.61642  0.15135  0.75574  Biso   1.000  S 
  S3       1.0000 0.15135  0.75574  0.61642  Biso   1.000  S 
  S4       1.0000 0.24426  0.38358  0.84865  Biso   1.000  S 
  S5       1.0000 0.38358  0.84865  0.24426  Biso   1.000  S 
  S6       1.0000 0.84865  0.24426  0.38358  Biso   1.000  S 
  S7       1.0000 0.93368  0.65181  0.85818  Biso   1.000  S 
  S8       1.0000 0.65181  0.85818  0.93368  Biso   1.000  S 
  S9       1.0000 0.85818  0.93368  0.65181  Biso   1.000  S 
  S10      1.0000 0.06632  0.34819  0.14182  Biso   1.000  S 
  S11      1.0000 0.34819  0.14182  0.06632  Biso   1.000  S 
  S12      1.0000 0.14182  0.06632  0.34819  Biso   1.000  S 
