data_image0
_cell_length_a       6.87349
_cell_length_b       6.87349
_cell_length_c       13.1655
_cell_angle_alpha    64.3481
_cell_angle_beta     64.3481
_cell_angle_gamma    36.6329

_symmetry_space_group_name_H-M    "P 1"
_symmetry_int_tables_number       1

loop_
  _symmetry_equiv_pos_as_xyz
  'x, y, z'

loop_
  _atom_site_label
  _atom_site_occupancy
  _atom_site_fract_x
  _atom_site_fract_y
  _atom_site_fract_z
  _atom_site_thermal_displace_type
  _atom_site_B_iso_or_equiv
  _atom_site_type_symbol
  Ag1      1.0000 0.49402  0.50598  0.75000  Biso   1.000  Ag
  Ag2      1.0000 0.50598  0.49402  0.25000  Biso   1.000  Ag
  Au1      1.0000 1.00000  1.00000  0.50000  Biso   1.000  Au
  Au2      1.0000 0.00000  0.00000  0.00000  Biso   1.000  Au
  Cl1      1.0000 0.05881  0.16616  0.59341  Biso   1.000  Cl
  Cl2      1.0000 0.16616  0.05881  0.09341  Biso   1.000  Cl
  Cl3      1.0000 0.94119  0.83384  0.40659  Biso   1.000  Cl
  Cl4      1.0000 0.83384  0.94119  0.90659  Biso   1.000  Cl
  Cl5      1.0000 0.81441  0.43792  0.35220  Biso   1.000  Cl
  Cl6      1.0000 0.43792  0.81441  0.85220  Biso   1.000  Cl
  Cl7      1.0000 0.18559  0.56208  0.64780  Biso   1.000  Cl
  Cl8      1.0000 0.56208  0.18559  0.14780  Biso   1.000  Cl
