data_image0
_cell_length_a       6.85535
_cell_length_b       6.85535
_cell_length_c       6.85535
_cell_angle_alpha    129.437
_cell_angle_beta     129.437
_cell_angle_gamma    74.3084

_symmetry_space_group_name_H-M    "P 1"
_symmetry_int_tables_number       1

loop_
  _symmetry_equiv_pos_as_xyz
  'x, y, z'

loop_
  _atom_site_label
  _atom_site_occupancy
  _atom_site_fract_x
  _atom_site_fract_y
  _atom_site_fract_z
  _atom_site_thermal_displace_type
  _atom_site_B_iso_or_equiv
  _atom_site_type_symbol
  Ag1      1.0000 0.25000  0.25000  0.00000  Biso   1.000  Ag
  Ag2      1.0000 0.75000  0.75000  0.00000  Biso   1.000  Ag
  Au1      1.0000 0.50000  0.00000  0.50000  Biso   1.000  Au
  Au2      1.0000 0.00000  0.50000  0.50000  Biso   1.000  Au
  F1       1.0000 0.54246  0.04246  0.83928  Biso   1.000  F 
  F2       1.0000 0.79682  0.29682  0.83928  Biso   1.000  F 
  F3       1.0000 0.45754  0.95754  0.16072  Biso   1.000  F 
  F4       1.0000 0.29682  0.45754  0.50000  Biso   1.000  F 
  F5       1.0000 0.95754  0.79682  0.50000  Biso   1.000  F 
  F6       1.0000 0.20318  0.70318  0.16072  Biso   1.000  F 
  F7       1.0000 0.70318  0.54246  0.50000  Biso   1.000  F 
  F8       1.0000 0.04246  0.20318  0.50000  Biso   1.000  F 
