data_image0
_cell_length_a       7.5625
_cell_length_b       7.5625
_cell_length_c       7.5625
_cell_angle_alpha    129.823
_cell_angle_beta     129.823
_cell_angle_gamma    73.6907

_symmetry_space_group_name_H-M    "P 1"
_symmetry_int_tables_number       1

loop_
  _symmetry_equiv_pos_as_xyz
  'x, y, z'

loop_
  _atom_site_label
  _atom_site_occupancy
  _atom_site_fract_x
  _atom_site_fract_y
  _atom_site_fract_z
  _atom_site_thermal_displace_type
  _atom_site_B_iso_or_equiv
  _atom_site_type_symbol
  Ag1      1.0000 0.75000  0.25000  0.50000  Biso   1.000  Ag
  Ag2      1.0000 0.00000  0.00000  0.00000  Biso   1.000  Ag
  Al1      1.0000 0.25000  0.75000  0.50000  Biso   1.000  Al
  Al2      1.0000 0.50000  0.50000  0.00000  Biso   1.000  Al
  Te1      1.0000 0.60489  0.12500  0.97989  Biso   1.000  Te
  Te2      1.0000 0.14511  0.62500  0.02011  Biso   1.000  Te
  Te3      1.0000 0.37500  0.39511  0.52011  Biso   1.000  Te
  Te4      1.0000 0.87500  0.85489  0.47989  Biso   1.000  Te
