data_image0
_cell_length_a       4.02693
_cell_length_b       6.23616
_cell_length_c       12.4343
_cell_angle_alpha    90
_cell_angle_beta     90
_cell_angle_gamma    90

_symmetry_space_group_name_H-M    "P 1"
_symmetry_int_tables_number       1

loop_
  _symmetry_equiv_pos_as_xyz
  'x, y, z'

loop_
  _atom_site_label
  _atom_site_occupancy
  _atom_site_fract_x
  _atom_site_fract_y
  _atom_site_fract_z
  _atom_site_thermal_displace_type
  _atom_site_B_iso_or_equiv
  _atom_site_type_symbol
  Ag1      1.0000 0.24767  0.07790  0.84152  Biso   1.000  Ag
  Ag2      1.0000 0.74767  0.92210  0.15848  Biso   1.000  Ag
  Ag3      1.0000 0.74767  0.57790  0.65848  Biso   1.000  Ag
  Ag4      1.0000 0.24767  0.42210  0.34152  Biso   1.000  Ag
  As1      1.0000 0.24765  0.37101  0.98850  Biso   1.000  As
  As2      1.0000 0.74765  0.62899  0.01150  Biso   1.000  As
  As3      1.0000 0.74765  0.87101  0.51150  Biso   1.000  As
  As4      1.0000 0.24765  0.12899  0.48850  Biso   1.000  As
  Se1      1.0000 0.24768  0.30316  0.66048  Biso   1.000  Se
  Se2      1.0000 0.74768  0.69684  0.33952  Biso   1.000  Se
  Se3      1.0000 0.74768  0.80316  0.83952  Biso   1.000  Se
  Se4      1.0000 0.24768  0.19684  0.16048  Biso   1.000  Se
