data_image0
_cell_length_a       7.34641
_cell_length_b       7.81328
_cell_length_c       8.05134
_cell_angle_alpha    110.894
_cell_angle_beta     106.253
_cell_angle_gamma    105.679

_symmetry_space_group_name_H-M    "P 1"
_symmetry_int_tables_number       1

loop_
  _symmetry_equiv_pos_as_xyz
  'x, y, z'

loop_
  _atom_site_label
  _atom_site_occupancy
  _atom_site_fract_x
  _atom_site_fract_y
  _atom_site_fract_z
  _atom_site_thermal_displace_type
  _atom_site_B_iso_or_equiv
  _atom_site_type_symbol
  Ag1      1.0000 0.69223  0.17700  0.95526  Biso   1.000  Ag
  Ag2      1.0000 0.30777  0.82300  0.04474  Biso   1.000  Ag
  As1      1.0000 0.62660  0.65188  0.82982  Biso   1.000  As
  As2      1.0000 0.37340  0.34812  0.17018  Biso   1.000  As
  As3      1.0000 0.84388  0.56309  0.52199  Biso   1.000  As
  As4      1.0000 0.15612  0.43691  0.47801  Biso   1.000  As
  As5      1.0000 0.82013  0.17325  0.55298  Biso   1.000  As
  As6      1.0000 0.17987  0.82675  0.44702  Biso   1.000  As
  O1       1.0000 0.59581  0.85678  0.95226  Biso   1.000  O 
  O2       1.0000 0.40419  0.14322  0.04774  Biso   1.000  O 
  O3       1.0000 0.71972  0.53934  0.96659  Biso   1.000  O 
  O4       1.0000 0.28028  0.46066  0.03341  Biso   1.000  O 
  O5       1.0000 0.90388  0.21345  0.78609  Biso   1.000  O 
  O6       1.0000 0.09612  0.78655  0.21391  Biso   1.000  O 
  O7       1.0000 0.80728  0.71810  0.73382  Biso   1.000  O 
  O8       1.0000 0.19272  0.28190  0.26618  Biso   1.000  O 
  O9       1.0000 0.91378  0.43295  0.32010  Biso   1.000  O 
  O10      1.0000 0.08622  0.56705  0.67990  Biso   1.000  O 
  O11      1.0000 0.60628  0.55711  0.35210  Biso   1.000  O 
  O12      1.0000 0.39372  0.44289  0.64790  Biso   1.000  O 
  O13      1.0000 0.62101  0.93424  0.38589  Biso   1.000  O 
  O14      1.0000 0.37899  0.06576  0.61411  Biso   1.000  O 
  O15      1.0000 0.98642  0.81240  0.53692  Biso   1.000  O 
  O16      1.0000 0.01358  0.18760  0.46308  Biso   1.000  O 
  O17      1.0000 0.68506  0.31663  0.50219  Biso   1.000  O 
  O18      1.0000 0.31494  0.68337  0.49781  Biso   1.000  O 
  H1       1.0000 0.86980  0.63774  0.07080  Biso   1.000  H 
  H2       1.0000 0.13020  0.36226  0.92920  Biso   1.000  H 
  H3       1.0000 0.65331  0.82328  0.40002  Biso   1.000  H 
  H4       1.0000 0.34669  0.17672  0.59998  Biso   1.000  H 
