data_image0
_cell_length_a       6.60275
_cell_length_b       6.60275
_cell_length_c       6.60275
_cell_angle_alpha    128.289
_cell_angle_beta     128.289
_cell_angle_gamma    76.1568

_symmetry_space_group_name_H-M    "P 1"
_symmetry_int_tables_number       1

loop_
  _symmetry_equiv_pos_as_xyz
  'x, y, z'

loop_
  _atom_site_label
  _atom_site_occupancy
  _atom_site_fract_x
  _atom_site_fract_y
  _atom_site_fract_z
  _atom_site_thermal_displace_type
  _atom_site_B_iso_or_equiv
  _atom_site_type_symbol
  Ag1      1.0000 0.75000  0.25000  0.50000  Biso   1.000  Ag
  Ag2      1.0000 0.00000  0.00000  0.00000  Biso   1.000  Ag
  Al1      1.0000 0.25000  0.75000  0.50000  Biso   1.000  Al
  Al2      1.0000 0.50000  0.50000  0.00000  Biso   1.000  Al
  S1       1.0000 0.58140  0.12500  0.95640  Biso   1.000  S 
  S2       1.0000 0.16860  0.62500  0.04360  Biso   1.000  S 
  S3       1.0000 0.37500  0.41860  0.54360  Biso   1.000  S 
  S4       1.0000 0.87500  0.83140  0.45640  Biso   1.000  S 
