data_image0
_cell_length_a       14.379
_cell_length_b       14.379
_cell_length_c       14.379
_cell_angle_alpha    27.151
_cell_angle_beta     27.151
_cell_angle_gamma    27.151

_symmetry_space_group_name_H-M    "P 1"
_symmetry_int_tables_number       1

loop_
  _symmetry_equiv_pos_as_xyz
  'x, y, z'

loop_
  _atom_site_label
  _atom_site_occupancy
  _atom_site_fract_x
  _atom_site_fract_y
  _atom_site_fract_z
  _atom_site_thermal_displace_type
  _atom_site_B_iso_or_equiv
  _atom_site_type_symbol
  Bi1      1.0000 0.91305  0.91305  0.91305  Biso   1.000  Bi
  Bi2      1.0000 0.08695  0.08695  0.08695  Biso   1.000  Bi
  Se1      1.0000 0.87449  0.24829  0.50122  Biso   1.000  Se
  Se2      1.0000 0.24829  0.50122  0.87449  Biso   1.000  Se
  Se3      1.0000 0.50122  0.87449  0.24829  Biso   1.000  Se
  Se4      1.0000 0.12551  0.75171  0.49878  Biso   1.000  Se
  Se5      1.0000 0.75171  0.49878  0.12551  Biso   1.000  Se
  Se6      1.0000 0.49878  0.12551  0.75171  Biso   1.000  Se
  Se7      1.0000 0.27716  0.99001  0.61404  Biso   1.000  Se
  Se8      1.0000 0.99001  0.61404  0.27716  Biso   1.000  Se
  Se9      1.0000 0.61404  0.27716  0.99001  Biso   1.000  Se
  Se10     1.0000 0.72284  0.00999  0.38596  Biso   1.000  Se
  Se11     1.0000 0.00999  0.38596  0.72284  Biso   1.000  Se
  Se12     1.0000 0.38596  0.72284  0.00999  Biso   1.000  Se
  P1       1.0000 0.27717  0.27717  0.27717  Biso   1.000  P 
  P2       1.0000 0.72283  0.72283  0.72283  Biso   1.000  P 
  P3       1.0000 0.22232  0.22232  0.22232  Biso   1.000  P 
  P4       1.0000 0.77768  0.77768  0.77768  Biso   1.000  P 
  Ag1      1.0000 0.59211  0.59211  0.59211  Biso   1.000  Ag
  Ag2      1.0000 0.40789  0.40789  0.40789  Biso   1.000  Ag
