data_image0
_cell_length_a       9.7902
_cell_length_b       9.77383
_cell_length_c       14.6589
_cell_angle_alpha    96.9683
_cell_angle_beta     107.1
_cell_angle_gamma    106.951

_symmetry_space_group_name_H-M    "P 1"
_symmetry_int_tables_number       1

loop_
  _symmetry_equiv_pos_as_xyz
  'x, y, z'

loop_
  _atom_site_label
  _atom_site_occupancy
  _atom_site_fract_x
  _atom_site_fract_y
  _atom_site_fract_z
  _atom_site_thermal_displace_type
  _atom_site_B_iso_or_equiv
  _atom_site_type_symbol
  Mo1      1.0000 0.54333  0.96571  0.88607  Biso   1.000  Mo
  Mo2      1.0000 0.45667  0.03429  0.11393  Biso   1.000  Mo
  Mo3      1.0000 0.32152  0.02717  0.92829  Biso   1.000  Mo
  Mo4      1.0000 0.67848  0.97283  0.07171  Biso   1.000  Mo
  Mo5      1.0000 0.39381  0.80059  0.97776  Biso   1.000  Mo
  Mo6      1.0000 0.60619  0.19941  0.02224  Biso   1.000  Mo
  Mo7      1.0000 0.53742  0.66830  0.59146  Biso   1.000  Mo
  Mo8      1.0000 0.46258  0.33170  0.40854  Biso   1.000  Mo
  Mo9      1.0000 0.33737  0.40031  0.53501  Biso   1.000  Mo
  Mo10     1.0000 0.66263  0.59969  0.46499  Biso   1.000  Mo
  Mo11     1.0000 0.63116  0.44146  0.59463  Biso   1.000  Mo
  Mo12     1.0000 0.36884  0.55854  0.40537  Biso   1.000  Mo
  Br1      1.0000 0.26068  0.79407  0.79314  Biso   1.000  Br
  Br2      1.0000 0.73932  0.20593  0.20686  Biso   1.000  Br
  Br3      1.0000 0.61801  0.74403  0.93754  Biso   1.000  Br
  Br4      1.0000 0.38199  0.25597  0.06246  Biso   1.000  Br
  Br5      1.0000 0.82550  0.13707  0.97841  Biso   1.000  Br
  Br6      1.0000 0.17450  0.86293  0.02159  Biso   1.000  Br
  Br7      1.0000 0.47339  0.19229  0.83768  Biso   1.000  Br
  Br8      1.0000 0.52661  0.80771  0.16232  Biso   1.000  Br
  Br9      1.0000 0.07209  0.06744  0.82678  Biso   1.000  Br
  Br10     1.0000 0.92791  0.93256  0.17322  Biso   1.000  Br
  Br11     1.0000 0.24117  0.51830  0.94249  Biso   1.000  Br
  Br12     1.0000 0.75883  0.48170  0.05751  Biso   1.000  Br
  Br13     1.0000 0.82857  0.70918  0.64990  Biso   1.000  Br
  Br14     1.0000 0.17143  0.29082  0.35010  Biso   1.000  Br
  Br15     1.0000 0.50388  0.50855  0.71903  Biso   1.000  Br
  Br16     1.0000 0.49612  0.49145  0.28097  Biso   1.000  Br
  Br17     1.0000 0.24483  0.62647  0.53130  Biso   1.000  Br
  Br18     1.0000 0.75517  0.37353  0.46870  Biso   1.000  Br
  Br19     1.0000 0.56846  0.82549  0.46163  Biso   1.000  Br
  Br20     1.0000 0.43154  0.17451  0.53837  Biso   1.000  Br
  Br21     1.0000 0.10801  0.25698  0.58596  Biso   1.000  Br
  Br22     1.0000 0.89199  0.74303  0.41404  Biso   1.000  Br
  Br23     1.0000 0.81107  0.36099  0.73176  Biso   1.000  Br
  Br24     1.0000 0.18893  0.63901  0.26824  Biso   1.000  Br
  Br25     1.0000 0.60447  0.92416  0.71816  Biso   1.000  Br
  Br26     1.0000 0.39553  0.07584  0.28184  Biso   1.000  Br
  Ag1      1.0000 0.09536  0.33147  0.76439  Biso   1.000  Ag
  Ag2      1.0000 0.90464  0.66853  0.23561  Biso   1.000  Ag
