data_image0
_cell_length_a       11.2735
_cell_length_b       10.3163
_cell_length_c       7.34854
_cell_angle_alpha    51.3236
_cell_angle_beta     90
_cell_angle_gamma    90

_symmetry_space_group_name_H-M    "P 1"
_symmetry_int_tables_number       1

loop_
  _symmetry_equiv_pos_as_xyz
  'x, y, z'

loop_
  _atom_site_label
  _atom_site_occupancy
  _atom_site_fract_x
  _atom_site_fract_y
  _atom_site_fract_z
  _atom_site_thermal_displace_type
  _atom_site_B_iso_or_equiv
  _atom_site_type_symbol
  Bi1      1.0000 0.28089  0.00000  0.00000  Biso   1.000  Bi
  Bi2      1.0000 0.71911  0.00000  0.00000  Biso   1.000  Bi
  Bi3      1.0000 0.78089  0.50000  1.00000  Biso   1.000  Bi
  Bi4      1.0000 0.21911  0.50000  1.00000  Biso   1.000  Bi
  W1       1.0000 0.34434  0.50000  0.50000  Biso   1.000  W 
  W2       1.0000 0.65566  0.50000  0.50000  Biso   1.000  W 
  W3       1.0000 0.84434  1.00000  0.50000  Biso   1.000  W 
  W4       1.0000 0.15566  1.00000  0.50000  Biso   1.000  W 
  W5       1.0000 0.50000  0.72072  0.01712  Biso   1.000  W 
  W6       1.0000 0.50000  0.27928  0.98288  Biso   1.000  W 
  W7       1.0000 0.00000  0.77928  0.98288  Biso   1.000  W 
  W8       1.0000 0.00000  0.22072  0.01712  Biso   1.000  W 
  Ag1      1.0000 0.50000  0.79846  0.51752  Biso   1.000  Ag
  Ag2      1.0000 0.50000  0.20154  0.48248  Biso   1.000  Ag
  Ag3      1.0000 0.00000  0.70154  0.48248  Biso   1.000  Ag
  Ag4      1.0000 0.00000  0.29846  0.51752  Biso   1.000  Ag
  O1       1.0000 0.37978  0.72575  0.23140  Biso   1.000  O 
  O2       1.0000 0.37978  0.27425  0.76860  Biso   1.000  O 
  O3       1.0000 0.62022  0.27425  0.76860  Biso   1.000  O 
  O4       1.0000 0.62022  0.72575  0.23140  Biso   1.000  O 
  O5       1.0000 0.87978  0.77425  0.76859  Biso   1.000  O 
  O6       1.0000 0.12022  0.77425  0.76859  Biso   1.000  O 
  O7       1.0000 0.12022  0.22575  0.23140  Biso   1.000  O 
  O8       1.0000 0.87978  0.22575  0.23140  Biso   1.000  O 
  O9       1.0000 0.25235  0.94674  0.36140  Biso   1.000  O 
  O10      1.0000 0.25235  0.05326  0.63860  Biso   1.000  O 
  O11      1.0000 0.74765  0.05326  0.63860  Biso   1.000  O 
  O12      1.0000 0.74765  0.94674  0.36140  Biso   1.000  O 
  O13      1.0000 0.75235  0.55326  0.63860  Biso   1.000  O 
  O14      1.0000 0.24765  0.55326  0.63860  Biso   1.000  O 
  O15      1.0000 0.24765  0.44674  0.36140  Biso   1.000  O 
  O16      1.0000 0.75235  0.44674  0.36140  Biso   1.000  O 
  O17      1.0000 0.00000  0.55460  0.16959  Biso   1.000  O 
  O18      1.0000 0.00000  0.44540  0.83041  Biso   1.000  O 
  O19      1.0000 0.50000  0.94540  0.83041  Biso   1.000  O 
  O20      1.0000 0.50000  0.05460  0.16959  Biso   1.000  O 
  O21      1.0000 0.12349  0.82569  0.09549  Biso   1.000  O 
  O22      1.0000 0.12349  0.17431  0.90450  Biso   1.000  O 
  O23      1.0000 0.87651  0.17431  0.90450  Biso   1.000  O 
  O24      1.0000 0.87651  0.82569  0.09549  Biso   1.000  O 
  O25      1.0000 0.62349  0.67431  0.90450  Biso   1.000  O 
  O26      1.0000 0.37651  0.67431  0.90450  Biso   1.000  O 
  O27      1.0000 0.37651  0.32569  0.09549  Biso   1.000  O 
  O28      1.0000 0.62349  0.32569  0.09549  Biso   1.000  O 
  O29      1.0000 0.00000  0.98090  0.34139  Biso   1.000  O 
  O30      1.0000 0.00000  0.01910  0.65861  Biso   1.000  O 
  O31      1.0000 0.50000  0.51910  0.65861  Biso   1.000  O 
  O32      1.0000 0.50000  0.48090  0.34139  Biso   1.000  O 
