data_image0
_cell_length_a       4.0442
_cell_length_b       4.0442
_cell_length_c       19.0198
_cell_angle_alpha    90
_cell_angle_beta     90
_cell_angle_gamma    120

_symmetry_space_group_name_H-M    "P 1"
_symmetry_int_tables_number       1

loop_
  _symmetry_equiv_pos_as_xyz
  'x, y, z'

loop_
  _atom_site_label
  _atom_site_occupancy
  _atom_site_fract_x
  _atom_site_fract_y
  _atom_site_fract_z
  _atom_site_thermal_displace_type
  _atom_site_B_iso_or_equiv
  _atom_site_type_symbol
  Ag1      1.0000 0.00000  0.00000  0.00000  Biso   1.000  Ag
  Ag2      1.0000 0.66667  0.33333  0.33334  Biso   1.000  Ag
  Ag3      1.0000 0.33333  0.66667  0.66666  Biso   1.000  Ag
  Bi1      1.0000 0.00000  0.00000  0.50000  Biso   1.000  Bi
  Bi2      1.0000 0.66667  0.33333  0.83361  Biso   1.000  Bi
  Bi3      1.0000 0.33333  0.66667  0.16639  Biso   1.000  Bi
  S1       1.0000 0.00000  0.00000  0.74722  Biso   1.000  S 
  S2       1.0000 0.00000  0.00000  0.25278  Biso   1.000  S 
  S3       1.0000 0.66667  0.33333  0.08004  Biso   1.000  S 
  S4       1.0000 0.33333  0.66667  0.91996  Biso   1.000  S 
  S5       1.0000 0.66667  0.33333  0.58649  Biso   1.000  S 
  S6       1.0000 0.33333  0.66667  0.41351  Biso   1.000  S 
