data_image0
_cell_length_a       10.312
_cell_length_b       10.312
_cell_length_c       5.97827
_cell_angle_alpha    90
_cell_angle_beta     90
_cell_angle_gamma    154.118

_symmetry_space_group_name_H-M    "P 1"
_symmetry_int_tables_number       1

loop_
  _symmetry_equiv_pos_as_xyz
  'x, y, z'

loop_
  _atom_site_label
  _atom_site_occupancy
  _atom_site_fract_x
  _atom_site_fract_y
  _atom_site_fract_z
  _atom_site_thermal_displace_type
  _atom_site_B_iso_or_equiv
  _atom_site_type_symbol
  Cs1      1.0000 0.41573  0.58427  0.25000  Biso   1.000  Cs
  Cs2      1.0000 0.58427  0.41573  0.75000  Biso   1.000  Cs
  Ag1      1.0000 0.20067  0.79933  0.25000  Biso   1.000  Ag
  Ag2      1.0000 0.79933  0.20067  0.75000  Biso   1.000  Ag
  Br1      1.0000 0.77506  0.22494  0.25000  Biso   1.000  Br
  Br2      1.0000 0.22494  0.77506  0.75000  Biso   1.000  Br
  Br3      1.0000 0.06848  0.93152  0.25000  Biso   1.000  Br
  Br4      1.0000 0.93152  0.06848  0.75000  Biso   1.000  Br
