data_image0
_cell_length_a       7.30739
_cell_length_b       8.44551
_cell_length_c       14.7685
_cell_angle_alpha    73.2716
_cell_angle_beta     90
_cell_angle_gamma    90

_symmetry_space_group_name_H-M    "P 1"
_symmetry_int_tables_number       1

loop_
  _symmetry_equiv_pos_as_xyz
  'x, y, z'

loop_
  _atom_site_label
  _atom_site_occupancy
  _atom_site_fract_x
  _atom_site_fract_y
  _atom_site_fract_z
  _atom_site_thermal_displace_type
  _atom_site_B_iso_or_equiv
  _atom_site_type_symbol
  Ba1      1.0000 0.16287  0.05646  0.14082  Biso   1.000  Ba
  Ba2      1.0000 0.66287  0.94354  0.35918  Biso   1.000  Ba
  Ba3      1.0000 0.83713  0.94354  0.85918  Biso   1.000  Ba
  Ba4      1.0000 0.33713  0.05646  0.64082  Biso   1.000  Ba
  Ba5      1.0000 0.16599  0.55541  0.13571  Biso   1.000  Ba
  Ba6      1.0000 0.66599  0.44459  0.36429  Biso   1.000  Ba
  Ba7      1.0000 0.83401  0.44459  0.86429  Biso   1.000  Ba
  Ba8      1.0000 0.33401  0.55541  0.63571  Biso   1.000  Ba
  In1      1.0000 0.19129  0.18786  0.37621  Biso   1.000  In
  In2      1.0000 0.69129  0.81214  0.12379  Biso   1.000  In
  In3      1.0000 0.80871  0.81214  0.62379  Biso   1.000  In
  In4      1.0000 0.30871  0.18786  0.87621  Biso   1.000  In
  Ag1      1.0000 0.17595  0.68120  0.38810  Biso   1.000  Ag
  Ag2      1.0000 0.67595  0.31880  0.11190  Biso   1.000  Ag
  Ag3      1.0000 0.82405  0.31880  0.61190  Biso   1.000  Ag
  Ag4      1.0000 0.32405  0.68120  0.88810  Biso   1.000  Ag
  S1       1.0000 0.75975  0.10403  0.03077  Biso   1.000  S 
  S2       1.0000 0.25975  0.89597  0.46923  Biso   1.000  S 
  S3       1.0000 0.24025  0.89597  0.96923  Biso   1.000  S 
  S4       1.0000 0.74025  0.10403  0.53077  Biso   1.000  S 
  S5       1.0000 0.92908  0.24509  0.26500  Biso   1.000  S 
  S6       1.0000 0.42908  0.75491  0.23500  Biso   1.000  S 
  S7       1.0000 0.07092  0.75491  0.73500  Biso   1.000  S 
  S8       1.0000 0.57092  0.24509  0.76500  Biso   1.000  S 
  S9       1.0000 0.43259  0.25528  0.24369  Biso   1.000  S 
  S10      1.0000 0.93259  0.74472  0.25631  Biso   1.000  S 
  S11      1.0000 0.56741  0.74472  0.75631  Biso   1.000  S 
  S12      1.0000 0.06741  0.25528  0.74369  Biso   1.000  S 
  S13      1.0000 0.26359  0.38550  0.46923  Biso   1.000  S 
  S14      1.0000 0.76359  0.61450  0.03077  Biso   1.000  S 
  S15      1.0000 0.73641  0.61450  0.53077  Biso   1.000  S 
  S16      1.0000 0.23641  0.38550  0.96923  Biso   1.000  S 
