data_image0
_cell_length_a       4.57273
_cell_length_b       4.57273
_cell_length_c       9.75197
_cell_angle_alpha    90
_cell_angle_beta     90
_cell_angle_gamma    90

_symmetry_space_group_name_H-M    "P 1"
_symmetry_int_tables_number       1

loop_
  _symmetry_equiv_pos_as_xyz
  'x, y, z'

loop_
  _atom_site_label
  _atom_site_occupancy
  _atom_site_fract_x
  _atom_site_fract_y
  _atom_site_fract_z
  _atom_site_thermal_displace_type
  _atom_site_B_iso_or_equiv
  _atom_site_type_symbol
  Ag1      1.0000 0.00000  0.00000  0.50000  Biso   1.000  Ag
  Ag2      1.0000 0.50000  0.50000  0.50000  Biso   1.000  Ag
  Ba1      1.0000 0.00000  0.50000  0.85153  Biso   1.000  Ba
  Ba2      1.0000 0.50000  0.00000  0.14847  Biso   1.000  Ba
  F1       1.0000 0.00000  0.00000  0.00000  Biso   1.000  F 
  F2       1.0000 0.50000  0.50000  0.00000  Biso   1.000  F 
  Te1      1.0000 0.00000  0.50000  0.31665  Biso   1.000  Te
  Te2      1.0000 0.50000  0.00000  0.68335  Biso   1.000  Te
