data_image0
_cell_length_a       7.31944
_cell_length_b       7.31944
_cell_length_c       7.31944
_cell_angle_alpha    108.175
_cell_angle_beta     108.175
_cell_angle_gamma    112.096

_symmetry_space_group_name_H-M    "P 1"
_symmetry_int_tables_number       1

loop_
  _symmetry_equiv_pos_as_xyz
  'x, y, z'

loop_
  _atom_site_label
  _atom_site_occupancy
  _atom_site_fract_x
  _atom_site_fract_y
  _atom_site_fract_z
  _atom_site_thermal_displace_type
  _atom_site_B_iso_or_equiv
  _atom_site_type_symbol
  Ag1      1.0000 0.42738  0.42738  0.00000  Biso   1.000  Ag
  Bi1      1.0000 0.00539  0.00539  0.00000  Biso   1.000  Bi
  Cr1      1.0000 0.58721  0.37013  0.54132  Biso   1.000  Cr
  Cr2      1.0000 0.04589  0.58721  0.21708  Biso   1.000  Cr
  Cr3      1.0000 0.37013  0.82882  0.78292  Biso   1.000  Cr
  Cr4      1.0000 0.82882  0.04589  0.45868  Biso   1.000  Cr
  O1       1.0000 0.47519  0.29858  0.68463  Biso   1.000  O 
  O2       1.0000 0.79056  0.47519  0.17661  Biso   1.000  O 
  O3       1.0000 0.29858  0.61394  0.82339  Biso   1.000  O 
  O4       1.0000 0.61394  0.79056  0.31537  Biso   1.000  O 
  O5       1.0000 0.38950  0.29469  0.29917  Biso   1.000  O 
  O6       1.0000 0.09033  0.38950  0.09480  Biso   1.000  O 
  O7       1.0000 0.29469  0.99552  0.90520  Biso   1.000  O 
  O8       1.0000 0.99552  0.09033  0.70083  Biso   1.000  O 
  O9       1.0000 0.76326  0.64546  0.67250  Biso   1.000  O 
  O10      1.0000 0.09076  0.76326  0.11781  Biso   1.000  O 
  O11      1.0000 0.64546  0.97296  0.88219  Biso   1.000  O 
  O12      1.0000 0.97296  0.09076  0.32750  Biso   1.000  O 
  O13      1.0000 0.73857  0.23857  0.50000  Biso   1.000  O 
  O14      1.0000 0.23857  0.73857  0.50000  Biso   1.000  O 
