data_image0
_cell_length_a       4.62855
_cell_length_b       9.70981
_cell_length_c       9.7689
_cell_angle_alpha    90
_cell_angle_beta     90
_cell_angle_gamma    90

_symmetry_space_group_name_H-M    "P 1"
_symmetry_int_tables_number       1

loop_
  _symmetry_equiv_pos_as_xyz
  'x, y, z'

loop_
  _atom_site_label
  _atom_site_occupancy
  _atom_site_fract_x
  _atom_site_fract_y
  _atom_site_fract_z
  _atom_site_thermal_displace_type
  _atom_site_B_iso_or_equiv
  _atom_site_type_symbol
  Hg1      1.0000 0.50000  0.77304  0.25000  Biso   1.000  Hg
  Hg2      1.0000 0.50000  0.22696  0.75000  Biso   1.000  Hg
  Hg3      1.0000 0.50000  0.50000  0.50000  Biso   1.000  Hg
  Hg4      1.0000 0.50000  0.50000  0.00000  Biso   1.000  Hg
  Ag1      1.0000 0.00000  0.20966  0.41188  Biso   1.000  Ag
  Ag2      1.0000 0.00000  0.79034  0.58812  Biso   1.000  Ag
  Ag3      1.0000 0.00000  0.20966  0.08812  Biso   1.000  Ag
  Ag4      1.0000 0.00000  0.79034  0.91188  Biso   1.000  Ag
  Br1      1.0000 0.00000  0.47125  0.25000  Biso   1.000  Br
  Br2      1.0000 0.00000  0.52875  0.75000  Biso   1.000  Br
  Br3      1.0000 0.00000  0.98345  0.25000  Biso   1.000  Br
  Br4      1.0000 0.00000  0.01655  0.75000  Biso   1.000  Br
  S1       1.0000 0.50000  0.74770  0.49581  Biso   1.000  S 
  S2       1.0000 0.50000  0.25230  0.50419  Biso   1.000  S 
  S3       1.0000 0.50000  0.74770  0.00419  Biso   1.000  S 
  S4       1.0000 0.50000  0.25230  0.99581  Biso   1.000  S 
