data_image0
_cell_length_a       6.10398
_cell_length_b       4.41795
_cell_length_c       6.81254
_cell_angle_alpha    83.4691
_cell_angle_beta     90
_cell_angle_gamma    90

_symmetry_space_group_name_H-M    "P 1"
_symmetry_int_tables_number       1

loop_
  _symmetry_equiv_pos_as_xyz
  'x, y, z'

loop_
  _atom_site_label
  _atom_site_occupancy
  _atom_site_fract_x
  _atom_site_fract_y
  _atom_site_fract_z
  _atom_site_thermal_displace_type
  _atom_site_B_iso_or_equiv
  _atom_site_type_symbol
  Ag1      1.0000 0.25000  0.65353  0.97476  Biso   1.000  Ag
  Ag2      1.0000 0.75000  0.34647  0.02524  Biso   1.000  Ag
  Br1      1.0000 0.25000  0.97956  0.25245  Biso   1.000  Br
  Br2      1.0000 0.75000  0.02044  0.74755  Biso   1.000  Br
  N1       1.0000 0.25000  0.45003  0.70082  Biso   1.000  N 
  N2       1.0000 0.75000  0.54997  0.29918  Biso   1.000  N 
  H1       1.0000 0.25000  0.61090  0.57917  Biso   1.000  H 
  H2       1.0000 0.75000  0.38910  0.42083  Biso   1.000  H 
  H3       1.0000 0.11394  0.31500  0.69234  Biso   1.000  H 
  H4       1.0000 0.61394  0.68500  0.30766  Biso   1.000  H 
  H5       1.0000 0.88606  0.68500  0.30766  Biso   1.000  H 
  H6       1.0000 0.38606  0.31500  0.69234  Biso   1.000  H 
