data_image0
_cell_length_a       10.4845
_cell_length_b       8.37397
_cell_length_c       3.92676
_cell_angle_alpha    90
_cell_angle_beta     90
_cell_angle_gamma    90

_symmetry_space_group_name_H-M    "P 1"
_symmetry_int_tables_number       1

loop_
  _symmetry_equiv_pos_as_xyz
  'x, y, z'

loop_
  _atom_site_label
  _atom_site_occupancy
  _atom_site_fract_x
  _atom_site_fract_y
  _atom_site_fract_z
  _atom_site_thermal_displace_type
  _atom_site_B_iso_or_equiv
  _atom_site_type_symbol
  B1       1.0000 0.83520  0.74262  0.91169  Biso   1.000  B 
  B2       1.0000 0.33520  0.75738  0.91169  Biso   1.000  B 
  B3       1.0000 0.66480  0.24262  0.41169  Biso   1.000  B 
  B4       1.0000 0.16480  0.25738  0.41169  Biso   1.000  B 
  B5       1.0000 0.81544  0.45570  0.72055  Biso   1.000  B 
  B6       1.0000 0.31544  0.04430  0.72055  Biso   1.000  B 
  B7       1.0000 0.68456  0.95570  0.22055  Biso   1.000  B 
  B8       1.0000 0.18456  0.54430  0.22055  Biso   1.000  B 
  B9       1.0000 0.97332  0.39767  0.17783  Biso   1.000  B 
  B10      1.0000 0.47332  0.10233  0.17783  Biso   1.000  B 
  B11      1.0000 0.52668  0.89767  0.67783  Biso   1.000  B 
  B12      1.0000 0.02668  0.60233  0.67783  Biso   1.000  B 
  O1       1.0000 0.96287  0.74458  0.81609  Biso   1.000  O 
  O2       1.0000 0.46287  0.75542  0.81609  Biso   1.000  O 
  O3       1.0000 0.53713  0.24458  0.31609  Biso   1.000  O 
  O4       1.0000 0.03713  0.25542  0.31609  Biso   1.000  O 
  O5       1.0000 0.79168  0.88490  0.04169  Biso   1.000  O 
  O6       1.0000 0.29168  0.61510  0.04169  Biso   1.000  O 
  O7       1.0000 0.70832  0.38490  0.54169  Biso   1.000  O 
  O8       1.0000 0.20832  0.11510  0.54169  Biso   1.000  O 
  O9       1.0000 0.76543  0.60616  0.87238  Biso   1.000  O 
  O10      1.0000 0.26543  0.89384  0.87238  Biso   1.000  O 
  O11      1.0000 0.73457  0.10616  0.37238  Biso   1.000  O 
  O12      1.0000 0.23457  0.39384  0.37238  Biso   1.000  O 
  O13      1.0000 0.86985  0.34995  0.96973  Biso   1.000  O 
  O14      1.0000 0.36985  0.15005  0.96973  Biso   1.000  O 
  O15      1.0000 0.63015  0.84995  0.46973  Biso   1.000  O 
  O16      1.0000 0.13015  0.65005  0.46973  Biso   1.000  O 
  O17      1.0000 0.92783  0.50552  0.47865  Biso   1.000  O 
  O18      1.0000 0.42783  0.99448  0.47865  Biso   1.000  O 
  O19      1.0000 0.57217  0.00552  0.97865  Biso   1.000  O 
  O20      1.0000 0.07217  0.49448  0.97865  Biso   1.000  O 
  Ag1      1.0000 0.07906  0.91408  0.25069  Biso   1.000  Ag
  Ag2      1.0000 0.57906  0.58592  0.25069  Biso   1.000  Ag
  Ag3      1.0000 0.42094  0.41408  0.75069  Biso   1.000  Ag
  Ag4      1.0000 0.92094  0.08592  0.75069  Biso   1.000  Ag
