data_image0
_cell_length_a       4.11973
_cell_length_b       8.01671
_cell_length_c       11.3641
_cell_angle_alpha    75.9558
_cell_angle_beta     90
_cell_angle_gamma    90

_symmetry_space_group_name_H-M    "P 1"
_symmetry_int_tables_number       1

loop_
  _symmetry_equiv_pos_as_xyz
  'x, y, z'

loop_
  _atom_site_label
  _atom_site_occupancy
  _atom_site_fract_x
  _atom_site_fract_y
  _atom_site_fract_z
  _atom_site_thermal_displace_type
  _atom_site_B_iso_or_equiv
  _atom_site_type_symbol
  Bi1      1.0000 0.25000  0.19439  0.06360  Biso   1.000  Bi
  Bi2      1.0000 0.75000  0.80561  0.93640  Biso   1.000  Bi
  Bi3      1.0000 0.25000  0.53919  0.65468  Biso   1.000  Bi
  Bi4      1.0000 0.75000  0.46081  0.34532  Biso   1.000  Bi
  Ag1      1.0000 0.25000  0.05191  0.58970  Biso   1.000  Ag
  Ag2      1.0000 0.75000  0.94809  0.41030  Biso   1.000  Ag
  Cl1      1.0000 0.25000  0.59244  0.10056  Biso   1.000  Cl
  Cl2      1.0000 0.75000  0.40756  0.89944  Biso   1.000  Cl
  Se1      1.0000 0.25000  0.19743  0.33512  Biso   1.000  Se
  Se2      1.0000 0.75000  0.80257  0.66488  Biso   1.000  Se
  Se3      1.0000 0.25000  0.69353  0.40992  Biso   1.000  Se
  Se4      1.0000 0.75000  0.30647  0.59008  Biso   1.000  Se
  Se5      1.0000 0.25000  0.04496  0.85154  Biso   1.000  Se
  Se6      1.0000 0.75000  0.95504  0.14846  Biso   1.000  Se
