data_image0
_cell_length_a       6.15198
_cell_length_b       6.15198
_cell_length_c       17.4271
_cell_angle_alpha    81.1801
_cell_angle_beta     81.1801
_cell_angle_gamma    81.1809

_symmetry_space_group_name_H-M    "P 1"
_symmetry_int_tables_number       1

loop_
  _symmetry_equiv_pos_as_xyz
  'x, y, z'

loop_
  _atom_site_label
  _atom_site_occupancy
  _atom_site_fract_x
  _atom_site_fract_y
  _atom_site_fract_z
  _atom_site_thermal_displace_type
  _atom_site_B_iso_or_equiv
  _atom_site_type_symbol
  Ba1      1.0000 0.55063  0.79766  0.38910  Biso   1.000  Ba
  Ba2      1.0000 0.20234  0.44937  0.11090  Biso   1.000  Ba
  Ba3      1.0000 0.44937  0.20234  0.61090  Biso   1.000  Ba
  Ba4      1.0000 0.79766  0.55063  0.88910  Biso   1.000  Ba
  Ag1      1.0000 0.07619  0.92381  0.25000  Biso   1.000  Ag
  Ag2      1.0000 0.92381  0.07619  0.75000  Biso   1.000  Ag
  Ag3      1.0000 0.69921  0.30079  0.25000  Biso   1.000  Ag
  Ag4      1.0000 0.30079  0.69921  0.75000  Biso   1.000  Ag
  Sb1      1.0000 0.01874  0.31251  0.42147  Biso   1.000  Sb
  Sb2      1.0000 0.68749  0.98126  0.07853  Biso   1.000  Sb
  Sb3      1.0000 0.98126  0.68749  0.57853  Biso   1.000  Sb
  Sb4      1.0000 0.31251  0.01874  0.92147  Biso   1.000  Sb
  S1       1.0000 0.96533  0.50523  0.28508  Biso   1.000  S 
  S2       1.0000 0.49477  0.03467  0.21492  Biso   1.000  S 
  S3       1.0000 0.03467  0.49477  0.71492  Biso   1.000  S 
  S4       1.0000 0.50523  0.96533  0.78508  Biso   1.000  S 
  S5       1.0000 0.41951  0.30586  0.42249  Biso   1.000  S 
  S6       1.0000 0.69414  0.58049  0.07751  Biso   1.000  S 
  S7       1.0000 0.58049  0.69414  0.57751  Biso   1.000  S 
  S8       1.0000 0.30586  0.41951  0.92249  Biso   1.000  S 
  S9       1.0000 0.02800  0.92748  0.39694  Biso   1.000  S 
  S10      1.0000 0.07252  0.97200  0.10306  Biso   1.000  S 
  S11      1.0000 0.97200  0.07252  0.60306  Biso   1.000  S 
  S12      1.0000 0.92748  0.02800  0.89694  Biso   1.000  S 
