data_image0
_cell_length_a       4.77728
_cell_length_b       13.9524
_cell_length_c       14.4917
_cell_angle_alpha    90
_cell_angle_beta     90
_cell_angle_gamma    90

_symmetry_space_group_name_H-M    "P 1"
_symmetry_int_tables_number       1

loop_
  _symmetry_equiv_pos_as_xyz
  'x, y, z'

loop_
  _atom_site_label
  _atom_site_occupancy
  _atom_site_fract_x
  _atom_site_fract_y
  _atom_site_fract_z
  _atom_site_thermal_displace_type
  _atom_site_B_iso_or_equiv
  _atom_site_type_symbol
  Cs1      1.0000 0.25000  0.67279  0.01904  Biso   1.000  Cs
  Cs2      1.0000 0.25000  0.17279  0.48096  Biso   1.000  Cs
  Cs3      1.0000 0.75000  0.32721  0.98096  Biso   1.000  Cs
  Cs4      1.0000 0.75000  0.82721  0.51904  Biso   1.000  Cs
  Cs5      1.0000 0.25000  0.01118  0.82609  Biso   1.000  Cs
  Cs6      1.0000 0.25000  0.51118  0.67391  Biso   1.000  Cs
  Cs7      1.0000 0.75000  0.98882  0.17391  Biso   1.000  Cs
  Cs8      1.0000 0.75000  0.48882  0.32609  Biso   1.000  Cs
  Ag1      1.0000 0.25000  0.75537  0.30408  Biso   1.000  Ag
  Ag2      1.0000 0.25000  0.25537  0.19592  Biso   1.000  Ag
  Ag3      1.0000 0.75000  0.24463  0.69592  Biso   1.000  Ag
  Ag4      1.0000 0.75000  0.74463  0.80408  Biso   1.000  Ag
  Br1      1.0000 0.25000  0.63654  0.45120  Biso   1.000  Br
  Br2      1.0000 0.25000  0.13654  0.04880  Biso   1.000  Br
  Br3      1.0000 0.75000  0.36346  0.54880  Biso   1.000  Br
  Br4      1.0000 0.75000  0.86346  0.95120  Biso   1.000  Br
  Br5      1.0000 0.25000  0.94118  0.35954  Biso   1.000  Br
  Br6      1.0000 0.25000  0.44118  0.14046  Biso   1.000  Br
  Br7      1.0000 0.75000  0.05882  0.64046  Biso   1.000  Br
  Br8      1.0000 0.75000  0.55882  0.85954  Biso   1.000  Br
  Br9      1.0000 0.25000  0.77566  0.71125  Biso   1.000  Br
  Br10     1.0000 0.25000  0.27566  0.78875  Biso   1.000  Br
  Br11     1.0000 0.75000  0.22434  0.28875  Biso   1.000  Br
  Br12     1.0000 0.75000  0.72434  0.21125  Biso   1.000  Br
