data_image0
_cell_length_a       6.89191
_cell_length_b       6.89191
_cell_length_c       6.89191
_cell_angle_alpha    136.524
_cell_angle_beta     136.524
_cell_angle_gamma    63.1719

_symmetry_space_group_name_H-M    "P 1"
_symmetry_int_tables_number       1

loop_
  _symmetry_equiv_pos_as_xyz
  'x, y, z'

loop_
  _atom_site_label
  _atom_site_occupancy
  _atom_site_fract_x
  _atom_site_fract_y
  _atom_site_fract_z
  _atom_site_thermal_displace_type
  _atom_site_B_iso_or_equiv
  _atom_site_type_symbol
  Ag1      1.0000 0.25000  0.75000  0.50000  Biso   1.000  Ag
  Bi1      1.0000 0.50000  0.50000  0.00000  Biso   1.000  Bi
  Cr1      1.0000 0.00000  0.00000  0.00000  Biso   1.000  Cr
  Cr2      1.0000 0.75000  0.25000  0.50000  Biso   1.000  Cr
  O1       1.0000 0.20620  0.32191  0.37654  Biso   1.000  O 
  O2       1.0000 0.17034  0.79380  0.11571  Biso   1.000  O 
  O3       1.0000 0.67809  0.05463  0.88429  Biso   1.000  O 
  O4       1.0000 0.94537  0.82966  0.62346  Biso   1.000  O 
  O5       1.0000 0.79464  0.41190  0.86633  Biso   1.000  O 
  O6       1.0000 0.07170  0.20536  0.61726  Biso   1.000  O 
  O7       1.0000 0.58810  0.45443  0.38274  Biso   1.000  O 
  O8       1.0000 0.54557  0.92830  0.13367  Biso   1.000  O 
