data_image0
_cell_length_a       4.01114
_cell_length_b       7.774
_cell_length_c       11.0028
_cell_angle_alpha    77.1997
_cell_angle_beta     90
_cell_angle_gamma    90

_symmetry_space_group_name_H-M    "P 1"
_symmetry_int_tables_number       1

loop_
  _symmetry_equiv_pos_as_xyz
  'x, y, z'

loop_
  _atom_site_label
  _atom_site_occupancy
  _atom_site_fract_x
  _atom_site_fract_y
  _atom_site_fract_z
  _atom_site_thermal_displace_type
  _atom_site_B_iso_or_equiv
  _atom_site_type_symbol
  Bi1      1.0000 0.25000  0.18959  0.06975  Biso   1.000  Bi
  Bi2      1.0000 0.75000  0.81041  0.93025  Biso   1.000  Bi
  Bi3      1.0000 0.25000  0.54646  0.65175  Biso   1.000  Bi
  Bi4      1.0000 0.75000  0.45354  0.34825  Biso   1.000  Bi
  Ag1      1.0000 0.25000  0.05917  0.59516  Biso   1.000  Ag
  Ag2      1.0000 0.75000  0.94083  0.40484  Biso   1.000  Ag
  Cl1      1.0000 0.25000  0.59279  0.10388  Biso   1.000  Cl
  Cl2      1.0000 0.75000  0.40721  0.89612  Biso   1.000  Cl
  S1       1.0000 0.25000  0.19494  0.33847  Biso   1.000  S 
  S2       1.0000 0.75000  0.80506  0.66153  Biso   1.000  S 
  S3       1.0000 0.25000  0.68492  0.41214  Biso   1.000  S 
  S4       1.0000 0.75000  0.31508  0.58786  Biso   1.000  S 
  S5       1.0000 0.25000  0.04048  0.85614  Biso   1.000  S 
  S6       1.0000 0.75000  0.95952  0.14386  Biso   1.000  S 
