data_image0
_cell_length_a       7.4333
_cell_length_b       7.4333
_cell_length_c       10.7492
_cell_angle_alpha    90
_cell_angle_beta     90
_cell_angle_gamma    146.521

_symmetry_space_group_name_H-M    "P 1"
_symmetry_int_tables_number       1

loop_
  _symmetry_equiv_pos_as_xyz
  'x, y, z'

loop_
  _atom_site_label
  _atom_site_occupancy
  _atom_site_fract_x
  _atom_site_fract_y
  _atom_site_fract_z
  _atom_site_thermal_displace_type
  _atom_site_B_iso_or_equiv
  _atom_site_type_symbol
  Ag1      1.0000 0.46826  0.53174  0.25000  Biso   1.000  Ag
  Ag2      1.0000 0.53174  0.46826  0.75000  Biso   1.000  Ag
  Ba1      1.0000 0.75082  0.24918  0.25000  Biso   1.000  Ba
  Ba2      1.0000 0.24918  0.75082  0.75000  Biso   1.000  Ba
  Y1       1.0000 0.00000  0.00000  0.50000  Biso   1.000  Y 
  Y2       1.0000 0.00000  0.00000  0.00000  Biso   1.000  Y 
  Se1      1.0000 0.07889  0.92111  0.25000  Biso   1.000  Se
  Se2      1.0000 0.92111  0.07889  0.75000  Biso   1.000  Se
  Se3      1.0000 0.36356  0.63644  0.45086  Biso   1.000  Se
  Se4      1.0000 0.63644  0.36356  0.54914  Biso   1.000  Se
  Se5      1.0000 0.36356  0.63644  0.04914  Biso   1.000  Se
  Se6      1.0000 0.63644  0.36356  0.95086  Biso   1.000  Se
