data_image0
_cell_length_a       7.49692
_cell_length_b       7.49692
_cell_length_c       11.1636
_cell_angle_alpha    90
_cell_angle_beta     90
_cell_angle_gamma    145.885

_symmetry_space_group_name_H-M    "P 1"
_symmetry_int_tables_number       1

loop_
  _symmetry_equiv_pos_as_xyz
  'x, y, z'

loop_
  _atom_site_label
  _atom_site_occupancy
  _atom_site_fract_x
  _atom_site_fract_y
  _atom_site_fract_z
  _atom_site_thermal_displace_type
  _atom_site_B_iso_or_equiv
  _atom_site_type_symbol
  Ba1      1.0000 0.24946  0.75054  0.25000  Biso   1.000  Ba
  Ba2      1.0000 0.75054  0.24946  0.75000  Biso   1.000  Ba
  Ag1      1.0000 0.52805  0.47195  0.25000  Biso   1.000  Ag
  Ag2      1.0000 0.47195  0.52805  0.75000  Biso   1.000  Ag
  La1      1.0000 0.00000  0.00000  0.50000  Biso   1.000  La
  La2      1.0000 0.00000  0.00000  0.00000  Biso   1.000  La
  Se1      1.0000 0.63941  0.36059  0.43961  Biso   1.000  Se
  Se2      1.0000 0.36059  0.63941  0.56039  Biso   1.000  Se
  Se3      1.0000 0.63941  0.36059  0.06039  Biso   1.000  Se
  Se4      1.0000 0.36059  0.63941  0.93961  Biso   1.000  Se
  Se5      1.0000 0.91848  0.08152  0.25000  Biso   1.000  Se
  Se6      1.0000 0.08152  0.91848  0.75000  Biso   1.000  Se
