data_image0
_cell_length_a       5.04265
_cell_length_b       14.8148
_cell_length_c       15.4707
_cell_angle_alpha    90
_cell_angle_beta     90
_cell_angle_gamma    90

_symmetry_space_group_name_H-M    "P 1"
_symmetry_int_tables_number       1

loop_
  _symmetry_equiv_pos_as_xyz
  'x, y, z'

loop_
  _atom_site_label
  _atom_site_occupancy
  _atom_site_fract_x
  _atom_site_fract_y
  _atom_site_fract_z
  _atom_site_thermal_displace_type
  _atom_site_B_iso_or_equiv
  _atom_site_type_symbol
  Cs1      1.0000 0.25000  0.67637  0.01890  Biso   1.000  Cs
  Cs2      1.0000 0.25000  0.17637  0.48110  Biso   1.000  Cs
  Cs3      1.0000 0.75000  0.32363  0.98110  Biso   1.000  Cs
  Cs4      1.0000 0.75000  0.82363  0.51890  Biso   1.000  Cs
  Cs5      1.0000 0.25000  0.01361  0.82351  Biso   1.000  Cs
  Cs6      1.0000 0.25000  0.51361  0.67649  Biso   1.000  Cs
  Cs7      1.0000 0.75000  0.98639  0.17649  Biso   1.000  Cs
  Cs8      1.0000 0.75000  0.48639  0.32351  Biso   1.000  Cs
  Ag1      1.0000 0.25000  0.75563  0.30840  Biso   1.000  Ag
  Ag2      1.0000 0.25000  0.25563  0.19160  Biso   1.000  Ag
  Ag3      1.0000 0.75000  0.24437  0.69160  Biso   1.000  Ag
  Ag4      1.0000 0.75000  0.74437  0.80840  Biso   1.000  Ag
  I1       1.0000 0.25000  0.63334  0.45060  Biso   1.000  I 
  I2       1.0000 0.25000  0.13334  0.04940  Biso   1.000  I 
  I3       1.0000 0.75000  0.36666  0.54940  Biso   1.000  I 
  I4       1.0000 0.75000  0.86666  0.95060  Biso   1.000  I 
  I5       1.0000 0.25000  0.94043  0.36240  Biso   1.000  I 
  I6       1.0000 0.25000  0.44043  0.13760  Biso   1.000  I 
  I7       1.0000 0.75000  0.05957  0.63760  Biso   1.000  I 
  I8       1.0000 0.75000  0.55957  0.86240  Biso   1.000  I 
  I9       1.0000 0.25000  0.77591  0.71435  Biso   1.000  I 
  I10      1.0000 0.25000  0.27591  0.78565  Biso   1.000  I 
  I11      1.0000 0.75000  0.22409  0.28565  Biso   1.000  I 
  I12      1.0000 0.75000  0.72409  0.21435  Biso   1.000  I 
