data_image0
_cell_length_a       3.43473
_cell_length_b       5.54311
_cell_length_c       5.56968
_cell_angle_alpha    90
_cell_angle_beta     90
_cell_angle_gamma    90

_symmetry_space_group_name_H-M    "P 1"
_symmetry_int_tables_number       1

loop_
  _symmetry_equiv_pos_as_xyz
  'x, y, z'

loop_
  _atom_site_label
  _atom_site_occupancy
  _atom_site_fract_x
  _atom_site_fract_y
  _atom_site_fract_z
  _atom_site_thermal_displace_type
  _atom_site_B_iso_or_equiv
  _atom_site_type_symbol
  Ag1      1.0000 0.25000  0.75000  0.42316  Biso   1.000  Ag
  Ag2      1.0000 0.75000  0.25000  0.57684  Biso   1.000  Ag
  N1       1.0000 0.75000  0.75000  0.96331  Biso   1.000  N 
  N2       1.0000 0.25000  0.25000  0.03669  Biso   1.000  N 
  C1       1.0000 0.75000  0.75000  0.17682  Biso   1.000  C 
  C2       1.0000 0.25000  0.25000  0.82318  Biso   1.000  C 
  O1       1.0000 0.75000  0.75000  0.73760  Biso   1.000  O 
  O2       1.0000 0.25000  0.25000  0.26240  Biso   1.000  O 
