data_image0
_cell_length_a       11.0521
_cell_length_b       11.0521
_cell_length_c       7.47862
_cell_angle_alpha    73.6081
_cell_angle_beta     73.6081
_cell_angle_gamma    39.1053

_symmetry_space_group_name_H-M    "P 1"
_symmetry_int_tables_number       1

loop_
  _symmetry_equiv_pos_as_xyz
  'x, y, z'

loop_
  _atom_site_label
  _atom_site_occupancy
  _atom_site_fract_x
  _atom_site_fract_y
  _atom_site_fract_z
  _atom_site_thermal_displace_type
  _atom_site_B_iso_or_equiv
  _atom_site_type_symbol
  Ag1      1.0000 0.06832  0.10090  0.30804  Biso   1.000  Ag
  Ag2      1.0000 0.89910  0.93168  0.19196  Biso   1.000  Ag
  Ag3      1.0000 0.93168  0.89910  0.69196  Biso   1.000  Ag
  Ag4      1.0000 0.10090  0.06832  0.80804  Biso   1.000  Ag
  Ag5      1.0000 0.45720  0.85733  0.57608  Biso   1.000  Ag
  Ag6      1.0000 0.14267  0.54280  0.92392  Biso   1.000  Ag
  Ag7      1.0000 0.54280  0.14267  0.42392  Biso   1.000  Ag
  Ag8      1.0000 0.85733  0.45720  0.07608  Biso   1.000  Ag
  O1       1.0000 0.73825  0.96878  0.95218  Biso   1.000  O 
  O2       1.0000 0.03122  0.26175  0.54782  Biso   1.000  O 
  O3       1.0000 0.26175  0.03122  0.04782  Biso   1.000  O 
  O4       1.0000 0.96878  0.73825  0.45218  Biso   1.000  O 
  O5       1.0000 0.47415  0.00523  0.31468  Biso   1.000  O 
  O6       1.0000 0.99477  0.52585  0.18532  Biso   1.000  O 
  O7       1.0000 0.52585  0.99477  0.68532  Biso   1.000  O 
  O8       1.0000 0.00523  0.47415  0.81468  Biso   1.000  O 
  O9       1.0000 0.61187  0.59789  0.78184  Biso   1.000  O 
  O10      1.0000 0.40211  0.38813  0.71816  Biso   1.000  O 
  O11      1.0000 0.38813  0.40211  0.21816  Biso   1.000  O 
  O12      1.0000 0.59789  0.61187  0.28184  Biso   1.000  O 
  O13      1.0000 0.18751  0.80759  0.97818  Biso   1.000  O 
  O14      1.0000 0.19241  0.81249  0.52182  Biso   1.000  O 
  O15      1.0000 0.81249  0.19241  0.02182  Biso   1.000  O 
  O16      1.0000 0.80759  0.18751  0.47818  Biso   1.000  O 
  C1       1.0000 0.60724  0.98664  0.97656  Biso   1.000  C 
  C2       1.0000 0.01336  0.39276  0.52344  Biso   1.000  C 
  C3       1.0000 0.39276  0.01336  0.02344  Biso   1.000  C 
  C4       1.0000 0.98664  0.60724  0.47656  Biso   1.000  C 
  C5       1.0000 0.48770  0.00169  0.14267  Biso   1.000  C 
  C6       1.0000 0.99831  0.51230  0.35733  Biso   1.000  C 
  C7       1.0000 0.51230  0.99831  0.85733  Biso   1.000  C 
  C8       1.0000 0.00169  0.48770  0.64267  Biso   1.000  C 
  C9       1.0000 0.54940  0.54552  0.90088  Biso   1.000  C 
  C10      1.0000 0.45448  0.45060  0.59912  Biso   1.000  C 
  C11      1.0000 0.45060  0.45448  0.09912  Biso   1.000  C 
  C12      1.0000 0.54552  0.54940  0.40088  Biso   1.000  C 
  C13      1.0000 0.35901  0.63861  0.99016  Biso   1.000  C 
  C14      1.0000 0.36139  0.64099  0.50984  Biso   1.000  C 
  C15      1.0000 0.64099  0.36139  0.00984  Biso   1.000  C 
  C16      1.0000 0.63861  0.35901  0.49016  Biso   1.000  C 
