data_image0
_cell_length_a       13.9946
_cell_length_b       12.4748
_cell_length_c       7.57784
_cell_angle_alpha    84.7813
_cell_angle_beta     62.5868
_cell_angle_gamma    32.6319

_symmetry_space_group_name_H-M    "P 1"
_symmetry_int_tables_number       1

loop_
  _symmetry_equiv_pos_as_xyz
  'x, y, z'

loop_
  _atom_site_label
  _atom_site_occupancy
  _atom_site_fract_x
  _atom_site_fract_y
  _atom_site_fract_z
  _atom_site_thermal_displace_type
  _atom_site_B_iso_or_equiv
  _atom_site_type_symbol
  Cs1      1.0000 0.67906  0.67906  0.32094  Biso   1.000  Cs
  Cs2      1.0000 0.32094  0.32094  0.67906  Biso   1.000  Cs
  Cs3      1.0000 0.57094  0.57094  0.92906  Biso   1.000  Cs
  Cs4      1.0000 0.92906  0.92906  0.57094  Biso   1.000  Cs
  Ag1      1.0000 0.00000  0.00000  0.00000  Biso   1.000  Ag
  Ag2      1.0000 0.25000  0.25000  0.25000  Biso   1.000  Ag
  V1       1.0000 0.50000  0.50000  0.50000  Biso   1.000  V 
  V2       1.0000 0.75000  0.75000  0.75000  Biso   1.000  V 
  S1       1.0000 0.39767  0.99633  0.91596  Biso   1.000  S 
  S2       1.0000 0.69003  0.91596  0.99633  Biso   1.000  S 
  S3       1.0000 0.91596  0.69003  0.39767  Biso   1.000  S 
  S4       1.0000 0.99633  0.39767  0.69003  Biso   1.000  S 
  S5       1.0000 0.85233  0.25367  0.33404  Biso   1.000  S 
  S6       1.0000 0.55997  0.33404  0.25367  Biso   1.000  S 
  S7       1.0000 0.33404  0.55997  0.85233  Biso   1.000  S 
  S8       1.0000 0.25367  0.85233  0.55997  Biso   1.000  S 
