data_image0
_cell_length_a       3.94912
_cell_length_b       3.93767
_cell_length_c       5.61446
_cell_angle_alpha    90.0056
_cell_angle_beta     90
_cell_angle_gamma    90

_symmetry_space_group_name_H-M    "P 1"
_symmetry_int_tables_number       1

loop_
  _symmetry_equiv_pos_as_xyz
  'x, y, z'

loop_
  _atom_site_label
  _atom_site_occupancy
  _atom_site_fract_x
  _atom_site_fract_y
  _atom_site_fract_z
  _atom_site_thermal_displace_type
  _atom_site_B_iso_or_equiv
  _atom_site_type_symbol
  Ag1      1.0000 0.25000  0.75572  0.25086  Biso   1.000  Ag
  Ag2      1.0000 0.75000  0.24428  0.74914  Biso   1.000  Ag
  Cl1      1.0000 0.25000  0.74582  0.74944  Biso   1.000  Cl
  Cl2      1.0000 0.75000  0.25418  0.25056  Biso   1.000  Cl
