data_image0
_cell_length_a       6.13327
_cell_length_b       10.9358
_cell_length_c       13.5604
_cell_angle_alpha    90
_cell_angle_beta     90
_cell_angle_gamma    90

_symmetry_space_group_name_H-M    "P 1"
_symmetry_int_tables_number       1

loop_
  _symmetry_equiv_pos_as_xyz
  'x, y, z'

loop_
  _atom_site_label
  _atom_site_occupancy
  _atom_site_fract_x
  _atom_site_fract_y
  _atom_site_fract_z
  _atom_site_thermal_displace_type
  _atom_site_B_iso_or_equiv
  _atom_site_type_symbol
  Ag1      1.0000 0.57543  0.50000  0.93320  Biso   1.000  Ag
  Ag2      1.0000 0.42457  0.00000  0.43320  Biso   1.000  Ag
  Cs1      1.0000 0.99217  0.72870  0.25524  Biso   1.000  Cs
  Cs2      1.0000 0.99217  0.27130  0.25524  Biso   1.000  Cs
  Cs3      1.0000 0.00783  0.77130  0.75524  Biso   1.000  Cs
  Cs4      1.0000 0.00783  0.22870  0.75524  Biso   1.000  Cs
  Zn1      1.0000 0.00431  0.50000  0.52063  Biso   1.000  Zn
  Zn2      1.0000 0.99569  0.00000  0.02063  Biso   1.000  Zn
  S1       1.0000 0.99431  0.50000  0.91712  Biso   1.000  S 
  S2       1.0000 0.00569  0.00000  0.41712  Biso   1.000  S 
  S3       1.0000 0.43826  0.50000  0.74999  Biso   1.000  S 
  S4       1.0000 0.56174  0.00000  0.24999  Biso   1.000  S 
  S5       1.0000 0.44845  0.70235  0.01208  Biso   1.000  S 
  S6       1.0000 0.44845  0.29765  0.01208  Biso   1.000  S 
  S7       1.0000 0.55155  0.79765  0.51208  Biso   1.000  S 
  S8       1.0000 0.55155  0.20235  0.51208  Biso   1.000  S 
  S9       1.0000 0.47335  0.50000  0.27287  Biso   1.000  S 
  S10      1.0000 0.52665  0.00000  0.77287  Biso   1.000  S 
  C1       1.0000 0.02222  0.50000  0.03776  Biso   1.000  C 
  C2       1.0000 0.97778  0.00000  0.53776  Biso   1.000  C 
  C3       1.0000 0.65886  0.50000  0.68420  Biso   1.000  C 
  C4       1.0000 0.34114  0.00000  0.18420  Biso   1.000  C 
  C5       1.0000 0.66097  0.79050  0.01519  Biso   1.000  C 
  C6       1.0000 0.66097  0.20950  0.01519  Biso   1.000  C 
  C7       1.0000 0.33903  0.70950  0.51519  Biso   1.000  C 
  C8       1.0000 0.33903  0.29050  0.51519  Biso   1.000  C 
  C9       1.0000 0.66521  0.50000  0.35366  Biso   1.000  C 
  C10      1.0000 0.33479  0.00000  0.85366  Biso   1.000  C 
  N1       1.0000 0.04350  0.50000  0.12459  Biso   1.000  N 
  N2       1.0000 0.95650  0.00000  0.62459  Biso   1.000  N 
  N3       1.0000 0.82360  0.50000  0.63795  Biso   1.000  N 
  N4       1.0000 0.17640  0.00000  0.13795  Biso   1.000  N 
  N5       1.0000 0.81386  0.85689  0.01982  Biso   1.000  N 
  N6       1.0000 0.81386  0.14311  0.01982  Biso   1.000  N 
  N7       1.0000 0.18614  0.64311  0.51982  Biso   1.000  N 
  N8       1.0000 0.18614  0.35689  0.51982  Biso   1.000  N 
  N9       1.0000 0.81723  0.50000  0.40850  Biso   1.000  N 
  N10      1.0000 0.18277  0.00000  0.90850  Biso   1.000  N 
