data_image0
_cell_length_a       8.04072
_cell_length_b       5.31786
_cell_length_c       6.8398
_cell_angle_alpha    90
_cell_angle_beta     90
_cell_angle_gamma    90

_symmetry_space_group_name_H-M    "P 1"
_symmetry_int_tables_number       1

loop_
  _symmetry_equiv_pos_as_xyz
  'x, y, z'

loop_
  _atom_site_label
  _atom_site_occupancy
  _atom_site_fract_x
  _atom_site_fract_y
  _atom_site_fract_z
  _atom_site_thermal_displace_type
  _atom_site_B_iso_or_equiv
  _atom_site_type_symbol
  Ag1      1.0000 0.17478  0.25000  0.32677  Biso   1.000  Ag
  Ag2      1.0000 0.67478  0.25000  0.17323  Biso   1.000  Ag
  Ag3      1.0000 0.32522  0.75000  0.82677  Biso   1.000  Ag
  Ag4      1.0000 0.82522  0.75000  0.67323  Biso   1.000  Ag
  Cl1      1.0000 0.06671  0.25000  0.81621  Biso   1.000  Cl
  Cl2      1.0000 0.56671  0.25000  0.68379  Biso   1.000  Cl
  Cl3      1.0000 0.43329  0.75000  0.31621  Biso   1.000  Cl
  Cl4      1.0000 0.93329  0.75000  0.18379  Biso   1.000  Cl
  O1       1.0000 0.20816  0.25000  0.94919  Biso   1.000  O 
  O2       1.0000 0.70816  0.25000  0.55081  Biso   1.000  O 
  O3       1.0000 0.29184  0.75000  0.44919  Biso   1.000  O 
  O4       1.0000 0.79184  0.75000  0.05081  Biso   1.000  O 
  O5       1.0000 0.42399  0.52535  0.19048  Biso   1.000  O 
  O6       1.0000 0.92399  0.52535  0.30952  Biso   1.000  O 
  O7       1.0000 0.42399  0.97465  0.19048  Biso   1.000  O 
  O8       1.0000 0.07601  0.02535  0.69048  Biso   1.000  O 
  O9       1.0000 0.57601  0.47465  0.80952  Biso   1.000  O 
  O10      1.0000 0.07601  0.47465  0.69048  Biso   1.000  O 
  O11      1.0000 0.57601  0.02535  0.80952  Biso   1.000  O 
  O12      1.0000 0.92399  0.97465  0.30952  Biso   1.000  O 
  O13      1.0000 0.41160  0.25000  0.57736  Biso   1.000  O 
  O14      1.0000 0.91160  0.25000  0.92264  Biso   1.000  O 
  O15      1.0000 0.08840  0.75000  0.07736  Biso   1.000  O 
  O16      1.0000 0.58840  0.75000  0.42264  Biso   1.000  O 
