data_image0
_cell_length_a       3.90418
_cell_length_b       5.38596
_cell_length_c       15.5824
_cell_angle_alpha    90
_cell_angle_beta     90
_cell_angle_gamma    90

_symmetry_space_group_name_H-M    "P 1"
_symmetry_int_tables_number       1

loop_
  _symmetry_equiv_pos_as_xyz
  'x, y, z'

loop_
  _atom_site_label
  _atom_site_occupancy
  _atom_site_fract_x
  _atom_site_fract_y
  _atom_site_fract_z
  _atom_site_thermal_displace_type
  _atom_site_B_iso_or_equiv
  _atom_site_type_symbol
  Ag1      1.0000 0.23577  0.75000  0.47586  Biso   1.000  Ag
  Ag2      1.0000 0.76423  0.25000  0.52414  Biso   1.000  Ag
  Ag3      1.0000 0.23577  0.25000  0.02414  Biso   1.000  Ag
  Ag4      1.0000 0.76423  0.75000  0.97586  Biso   1.000  Ag
  C1       1.0000 0.16648  0.75000  0.60407  Biso   1.000  C 
  C2       1.0000 0.83352  0.25000  0.39593  Biso   1.000  C 
  C3       1.0000 0.16648  0.25000  0.89593  Biso   1.000  C 
  C4       1.0000 0.83352  0.75000  0.10407  Biso   1.000  C 
  N1       1.0000 0.14288  0.75000  0.67932  Biso   1.000  N 
  N2       1.0000 0.85712  0.25000  0.32068  Biso   1.000  N 
  N3       1.0000 0.14288  0.25000  0.82068  Biso   1.000  N 
  N4       1.0000 0.85712  0.75000  0.17932  Biso   1.000  N 
  N5       1.0000 0.34780  0.75000  0.34196  Biso   1.000  N 
  N6       1.0000 0.65220  0.25000  0.65804  Biso   1.000  N 
  N7       1.0000 0.34780  0.25000  0.15804  Biso   1.000  N 
  N8       1.0000 0.65220  0.75000  0.84196  Biso   1.000  N 
  H1       1.0000 0.49145  0.59679  0.32666  Biso   1.000  H 
  H2       1.0000 0.50855  0.09679  0.67334  Biso   1.000  H 
  H3       1.0000 0.49145  0.40321  0.17334  Biso   1.000  H 
  H4       1.0000 0.50855  0.90321  0.82666  Biso   1.000  H 
  H5       1.0000 0.50855  0.40321  0.67334  Biso   1.000  H 
  H6       1.0000 0.49145  0.90321  0.32666  Biso   1.000  H 
  H7       1.0000 0.50855  0.59679  0.82666  Biso   1.000  H 
  H8       1.0000 0.49145  0.09679  0.17334  Biso   1.000  H 
  H9       1.0000 0.13995  0.75000  0.30136  Biso   1.000  H 
  H10      1.0000 0.86005  0.25000  0.69864  Biso   1.000  H 
  H11      1.0000 0.13995  0.25000  0.19864  Biso   1.000  H 
  H12      1.0000 0.86005  0.75000  0.80136  Biso   1.000  H 
