data_image0
_cell_length_a       7.35093
_cell_length_b       7.35093
_cell_length_c       7.35093
_cell_angle_alpha    107.991
_cell_angle_beta     107.991
_cell_angle_gamma    112.475

_symmetry_space_group_name_H-M    "P 1"
_symmetry_int_tables_number       1

loop_
  _symmetry_equiv_pos_as_xyz
  'x, y, z'

loop_
  _atom_site_label
  _atom_site_occupancy
  _atom_site_fract_x
  _atom_site_fract_y
  _atom_site_fract_z
  _atom_site_thermal_displace_type
  _atom_site_B_iso_or_equiv
  _atom_site_type_symbol
  Ag1      1.0000 0.75000  0.25000  0.50000  Biso   1.000  Ag
  Ag2      1.0000 0.25000  0.75000  0.50000  Biso   1.000  Ag
  Ag3      1.0000 0.69899  0.69899  0.00000  Biso   1.000  Ag
  Ag4      1.0000 0.30101  0.30101  0.00000  Biso   1.000  Ag
  Cl1      1.0000 0.19007  0.73747  0.92754  Biso   1.000  Cl
  Cl2      1.0000 0.80993  0.26253  0.07246  Biso   1.000  Cl
  Cl3      1.0000 0.26253  0.19007  0.45259  Biso   1.000  Cl
  Cl4      1.0000 0.73747  0.80993  0.54741  Biso   1.000  Cl
  O1       1.0000 0.93598  0.59723  0.83235  Biso   1.000  O 
  O2       1.0000 0.76488  0.10363  0.16765  Biso   1.000  O 
  O3       1.0000 0.10363  0.93598  0.33875  Biso   1.000  O 
  O4       1.0000 0.59723  0.76488  0.66125  Biso   1.000  O 
  O5       1.0000 0.06402  0.40277  0.16765  Biso   1.000  O 
  O6       1.0000 0.23512  0.89637  0.83235  Biso   1.000  O 
  O7       1.0000 0.89637  0.06402  0.66125  Biso   1.000  O 
  O8       1.0000 0.40277  0.23512  0.33875  Biso   1.000  O 
  O9       1.0000 0.25630  0.57566  0.83197  Biso   1.000  O 
  O10      1.0000 0.74370  0.42434  0.16803  Biso   1.000  O 
  O11      1.0000 0.42434  0.25630  0.68064  Biso   1.000  O 
  O12      1.0000 0.57566  0.74370  0.31936  Biso   1.000  O 
