data_image0
_cell_length_a       14.195
_cell_length_b       12.6655
_cell_length_c       7.67003
_cell_angle_alpha    84.76
_cell_angle_beta     62.6874
_cell_angle_gamma    32.5526

_symmetry_space_group_name_H-M    "P 1"
_symmetry_int_tables_number       1

loop_
  _symmetry_equiv_pos_as_xyz
  'x, y, z'

loop_
  _atom_site_label
  _atom_site_occupancy
  _atom_site_fract_x
  _atom_site_fract_y
  _atom_site_fract_z
  _atom_site_thermal_displace_type
  _atom_site_B_iso_or_equiv
  _atom_site_type_symbol
  Cs1      1.0000 0.07121  0.07121  0.42879  Biso   1.000  Cs
  Cs2      1.0000 0.42879  0.42879  0.07121  Biso   1.000  Cs
  Cs3      1.0000 0.17879  0.17879  0.82121  Biso   1.000  Cs
  Cs4      1.0000 0.82121  0.82121  0.17879  Biso   1.000  Cs
  Ag1      1.0000 0.75000  0.75000  0.75000  Biso   1.000  Ag
  Ag2      1.0000 0.50000  0.50000  0.50000  Biso   1.000  Ag
  Nb1      1.0000 0.25000  0.25000  0.25000  Biso   1.000  Nb
  Nb2      1.0000 0.00000  0.00000  0.00000  Biso   1.000  Nb
  S1       1.0000 0.74066  0.36810  0.06643  Biso   1.000  S 
  S2       1.0000 0.82481  0.06643  0.36810  Biso   1.000  S 
  S3       1.0000 0.06643  0.82481  0.74066  Biso   1.000  S 
  S4       1.0000 0.36810  0.74066  0.82481  Biso   1.000  S 
  S5       1.0000 0.50934  0.88190  0.18357  Biso   1.000  S 
  S6       1.0000 0.42519  0.18357  0.88190  Biso   1.000  S 
  S7       1.0000 0.18357  0.42519  0.50934  Biso   1.000  S 
  S8       1.0000 0.88190  0.50934  0.42519  Biso   1.000  S 
