data_image0
_cell_length_a       6.56658
_cell_length_b       9.85262
_cell_length_c       11.7748
_cell_angle_alpha    86.1922
_cell_angle_beta     90
_cell_angle_gamma    90

_symmetry_space_group_name_H-M    "P 1"
_symmetry_int_tables_number       1

loop_
  _symmetry_equiv_pos_as_xyz
  'x, y, z'

loop_
  _atom_site_label
  _atom_site_occupancy
  _atom_site_fract_x
  _atom_site_fract_y
  _atom_site_fract_z
  _atom_site_thermal_displace_type
  _atom_site_B_iso_or_equiv
  _atom_site_type_symbol
  Cs1      1.0000 0.25000  0.53750  0.60302  Biso   1.000  Cs
  Cs2      1.0000 0.75000  0.46250  0.39698  Biso   1.000  Cs
  Cs3      1.0000 0.25000  0.77731  0.31435  Biso   1.000  Cs
  Cs4      1.0000 0.75000  0.22269  0.68565  Biso   1.000  Cs
  Cs5      1.0000 0.25000  0.66264  0.93716  Biso   1.000  Cs
  Cs6      1.0000 0.75000  0.33736  0.06284  Biso   1.000  Cs
  Cs7      1.0000 0.25000  0.95383  0.61980  Biso   1.000  Cs
  Cs8      1.0000 0.75000  0.04617  0.38020  Biso   1.000  Cs
  Cs9      1.0000 0.75000  0.72533  0.13666  Biso   1.000  Cs
  Cs10     1.0000 0.25000  0.27467  0.86334  Biso   1.000  Cs
  Ag1      1.0000 0.50000  0.00000  0.00000  Biso   1.000  Ag
  Ag2      1.0000 0.00000  0.00000  0.00000  Biso   1.000  Ag
  Si1      1.0000 0.25000  0.44241  0.20843  Biso   1.000  Si
  Si2      1.0000 0.75000  0.55759  0.79157  Biso   1.000  Si
  Si3      1.0000 0.25000  0.12920  0.19969  Biso   1.000  Si
  Si4      1.0000 0.75000  0.87080  0.80031  Biso   1.000  Si
  Si5      1.0000 0.25000  0.25313  0.43397  Biso   1.000  Si
  Si6      1.0000 0.75000  0.74687  0.56603  Biso   1.000  Si
  O1       1.0000 0.45930  0.05167  0.16401  Biso   1.000  O 
  O2       1.0000 0.95930  0.94833  0.83599  Biso   1.000  O 
  O3       1.0000 0.54070  0.94833  0.83599  Biso   1.000  O 
  O4       1.0000 0.04070  0.05167  0.16401  Biso   1.000  O 
  O5       1.0000 0.45848  0.24235  0.50656  Biso   1.000  O 
  O6       1.0000 0.95848  0.75765  0.49344  Biso   1.000  O 
  O7       1.0000 0.54152  0.75765  0.49344  Biso   1.000  O 
  O8       1.0000 0.04152  0.24235  0.50656  Biso   1.000  O 
  O9       1.0000 0.45725  0.52370  0.17379  Biso   1.000  O 
  O10      1.0000 0.95726  0.47630  0.82621  Biso   1.000  O 
  O11      1.0000 0.54275  0.47630  0.82621  Biso   1.000  O 
  O12      1.0000 0.04274  0.52370  0.17379  Biso   1.000  O 
  O13      1.0000 0.25000  0.29009  0.14586  Biso   1.000  O 
  O14      1.0000 0.75000  0.70991  0.85414  Biso   1.000  O 
  O15      1.0000 0.25000  0.39869  0.34910  Biso   1.000  O 
  O16      1.0000 0.75000  0.60131  0.65090  Biso   1.000  O 
  O17      1.0000 0.25000  0.12819  0.34033  Biso   1.000  O 
  O18      1.0000 0.75000  0.87181  0.65967  Biso   1.000  O 
