data_image0
_cell_length_a       7.98111
_cell_length_b       7.98111
_cell_length_c       7.98111
_cell_angle_alpha    98.9417
_cell_angle_beta     98.9417
_cell_angle_gamma    133.562

_symmetry_space_group_name_H-M    "P 1"
_symmetry_int_tables_number       1

loop_
  _symmetry_equiv_pos_as_xyz
  'x, y, z'

loop_
  _atom_site_label
  _atom_site_occupancy
  _atom_site_fract_x
  _atom_site_fract_y
  _atom_site_fract_z
  _atom_site_thermal_displace_type
  _atom_site_B_iso_or_equiv
  _atom_site_type_symbol
  Cs1      1.0000 0.19359  0.50025  0.69383  Biso   1.000  Cs
  Cs2      1.0000 0.80641  0.49975  0.30617  Biso   1.000  Cs
  Cs3      1.0000 0.50025  0.80641  0.30666  Biso   1.000  Cs
  Cs4      1.0000 0.49975  0.19359  0.69334  Biso   1.000  Cs
  Ag1      1.0000 0.85853  0.85917  0.71770  Biso   1.000  Ag
  Ag2      1.0000 0.14147  0.14083  0.28230  Biso   1.000  Ag
  Ag3      1.0000 0.85917  0.14147  0.00064  Biso   1.000  Ag
  Ag4      1.0000 0.14083  0.85853  0.99936  Biso   1.000  Ag
  O1       1.0000 0.71779  0.00066  0.71845  Biso   1.000  O 
  O2       1.0000 0.28221  0.99934  0.28155  Biso   1.000  O 
  O3       1.0000 0.00066  0.28221  0.28286  Biso   1.000  O 
  O4       1.0000 0.99934  0.71779  0.71714  Biso   1.000  O 
