data_image0
_cell_length_a       10.8184
_cell_length_b       10.8184
_cell_length_c       6.14267
_cell_angle_alpha    86.6405
_cell_angle_beta     86.6405
_cell_angle_gamma    112.646

_symmetry_space_group_name_H-M    "P 1"
_symmetry_int_tables_number       1

loop_
  _symmetry_equiv_pos_as_xyz
  'x, y, z'

loop_
  _atom_site_label
  _atom_site_occupancy
  _atom_site_fract_x
  _atom_site_fract_y
  _atom_site_fract_z
  _atom_site_thermal_displace_type
  _atom_site_B_iso_or_equiv
  _atom_site_type_symbol
  Ag1      1.0000 0.30216  0.46534  0.43324  Biso   1.000  Ag
  Ag2      1.0000 0.46534  0.30216  0.43324  Biso   1.000  Ag
  Ag3      1.0000 0.69784  0.53466  0.56676  Biso   1.000  Ag
  Ag4      1.0000 0.53466  0.69784  0.56676  Biso   1.000  Ag
  Co1      1.0000 0.22761  0.22761  0.28801  Biso   1.000  Co
  Co2      1.0000 0.77239  0.77239  0.71199  Biso   1.000  Co
  Co3      1.0000 0.29925  0.70075  0.50000  Biso   1.000  Co
  Co4      1.0000 0.70075  0.29925  0.50000  Biso   1.000  Co
  C1       1.0000 0.33724  0.33724  0.07560  Biso   1.000  C 
  C2       1.0000 0.66276  0.66276  0.92440  Biso   1.000  C 
  C3       1.0000 0.17938  0.17938  0.57017  Biso   1.000  C 
  C4       1.0000 0.82062  0.82062  0.42983  Biso   1.000  C 
  C5       1.0000 0.07688  0.23516  0.20967  Biso   1.000  C 
  C6       1.0000 0.23516  0.07688  0.20967  Biso   1.000  C 
  C7       1.0000 0.92312  0.76484  0.79033  Biso   1.000  C 
  C8       1.0000 0.76484  0.92312  0.79033  Biso   1.000  C 
  C9       1.0000 0.40799  0.74866  0.25674  Biso   1.000  C 
  C10      1.0000 0.74866  0.40799  0.25674  Biso   1.000  C 
  C11      1.0000 0.59201  0.25134  0.74326  Biso   1.000  C 
  C12      1.0000 0.25134  0.59201  0.74326  Biso   1.000  C 
  C13      1.0000 0.33346  0.85554  0.60861  Biso   1.000  C 
  C14      1.0000 0.85554  0.33346  0.60861  Biso   1.000  C 
  C15      1.0000 0.66654  0.14446  0.39139  Biso   1.000  C 
  C16      1.0000 0.14446  0.66654  0.39139  Biso   1.000  C 
  O1       1.0000 0.39532  0.39532  0.91008  Biso   1.000  O 
  O2       1.0000 0.60468  0.60468  0.08992  Biso   1.000  O 
  O3       1.0000 0.12684  0.12684  0.74045  Biso   1.000  O 
  O4       1.0000 0.87316  0.87316  0.25955  Biso   1.000  O 
  O5       1.0000 0.97584  0.23414  0.15533  Biso   1.000  O 
  O6       1.0000 0.23414  0.97584  0.15533  Biso   1.000  O 
  O7       1.0000 0.02416  0.76586  0.84467  Biso   1.000  O 
  O8       1.0000 0.76586  0.02416  0.84467  Biso   1.000  O 
  O9       1.0000 0.46830  0.79098  0.08639  Biso   1.000  O 
  O10      1.0000 0.79098  0.46830  0.08639  Biso   1.000  O 
  O11      1.0000 0.53170  0.20902  0.91361  Biso   1.000  O 
  O12      1.0000 0.20902  0.53170  0.91361  Biso   1.000  O 
  O13      1.0000 0.35029  0.95923  0.67169  Biso   1.000  O 
  O14      1.0000 0.95923  0.35029  0.67169  Biso   1.000  O 
  O15      1.0000 0.64971  0.04077  0.32831  Biso   1.000  O 
  O16      1.0000 0.04077  0.64971  0.32831  Biso   1.000  O 
