data_image0
_cell_length_a       10.6557
_cell_length_b       7.20217
_cell_length_c       6.00945
_cell_angle_alpha    75.008
_cell_angle_beta     90
_cell_angle_gamma    90

_symmetry_space_group_name_H-M    "P 1"
_symmetry_int_tables_number       1

loop_
  _symmetry_equiv_pos_as_xyz
  'x, y, z'

loop_
  _atom_site_label
  _atom_site_occupancy
  _atom_site_fract_x
  _atom_site_fract_y
  _atom_site_fract_z
  _atom_site_thermal_displace_type
  _atom_site_B_iso_or_equiv
  _atom_site_type_symbol
  S1       1.0000 0.23391  0.77166  0.48674  Biso   1.000  S 
  S2       1.0000 0.23391  0.22834  0.01326  Biso   1.000  S 
  S3       1.0000 0.76609  0.22834  0.51326  Biso   1.000  S 
  S4       1.0000 0.76609  0.77166  0.98674  Biso   1.000  S 
  S5       1.0000 0.92335  0.78498  0.48551  Biso   1.000  S 
  S6       1.0000 0.92335  0.21502  0.01449  Biso   1.000  S 
  S7       1.0000 0.07665  0.21502  0.51449  Biso   1.000  S 
  S8       1.0000 0.07665  0.78498  0.98551  Biso   1.000  S 
  S9       1.0000 0.39547  0.73384  0.97842  Biso   1.000  S 
  S10      1.0000 0.39547  0.26616  0.52158  Biso   1.000  S 
  S11      1.0000 0.60453  0.26616  0.02158  Biso   1.000  S 
  S12      1.0000 0.60453  0.73384  0.47842  Biso   1.000  S 
  P1       1.0000 0.24576  0.84026  0.79491  Biso   1.000  P 
  P2       1.0000 0.24576  0.15974  0.70509  Biso   1.000  P 
  P3       1.0000 0.75424  0.15974  0.20509  Biso   1.000  P 
  P4       1.0000 0.75424  0.84026  0.29491  Biso   1.000  P 
  Cr1      1.0000 0.91696  0.00000  0.75000  Biso   1.000  Cr
  Cr2      1.0000 0.08304  1.00000  0.25000  Biso   1.000  Cr
  Ag1      1.0000 0.43620  1.00000  0.25000  Biso   1.000  Ag
  Ag2      1.0000 0.56380  0.00000  0.75000  Biso   1.000  Ag
