data_image0
_cell_length_a       5.41972
_cell_length_b       6.79381
_cell_length_c       9.33053
_cell_angle_alpha    90
_cell_angle_beta     90
_cell_angle_gamma    90

_symmetry_space_group_name_H-M    "P 1"
_symmetry_int_tables_number       1

loop_
  _symmetry_equiv_pos_as_xyz
  'x, y, z'

loop_
  _atom_site_label
  _atom_site_occupancy
  _atom_site_fract_x
  _atom_site_fract_y
  _atom_site_fract_z
  _atom_site_thermal_displace_type
  _atom_site_B_iso_or_equiv
  _atom_site_type_symbol
  Ag1      1.0000 0.51658  0.75000  0.13904  Biso   1.000  Ag
  Ag2      1.0000 0.98342  0.75000  0.63904  Biso   1.000  Ag
  Ag3      1.0000 0.01658  0.25000  0.36096  Biso   1.000  Ag
  Ag4      1.0000 0.48342  0.25000  0.86096  Biso   1.000  Ag
  Cu1      1.0000 0.50000  0.00000  0.50000  Biso   1.000  Cu
  Cu2      1.0000 0.00000  0.00000  0.00000  Biso   1.000  Cu
  Cu3      1.0000 0.50000  0.50000  0.50000  Biso   1.000  Cu
  Cu4      1.0000 0.00000  0.50000  0.00000  Biso   1.000  Cu
  V1       1.0000 0.06047  0.75000  0.31109  Biso   1.000  V 
  V2       1.0000 0.43953  0.75000  0.81109  Biso   1.000  V 
  V3       1.0000 0.56047  0.25000  0.18891  Biso   1.000  V 
  V4       1.0000 0.93953  0.25000  0.68891  Biso   1.000  V 
  O1       1.0000 0.26270  0.25000  0.12993  Biso   1.000  O 
  O2       1.0000 0.23730  0.25000  0.62993  Biso   1.000  O 
  O3       1.0000 0.76270  0.75000  0.37007  Biso   1.000  O 
  O4       1.0000 0.73730  0.75000  0.87007  Biso   1.000  O 
  O5       1.0000 0.08113  0.75000  0.11446  Biso   1.000  O 
  O6       1.0000 0.41887  0.75000  0.61446  Biso   1.000  O 
  O7       1.0000 0.58113  0.25000  0.38554  Biso   1.000  O 
  O8       1.0000 0.91887  0.25000  0.88554  Biso   1.000  O 
  O9       1.0000 0.21698  0.54576  0.37782  Biso   1.000  O 
  O10      1.0000 0.28302  0.54576  0.87782  Biso   1.000  O 
  O11      1.0000 0.21698  0.95424  0.37782  Biso   1.000  O 
  O12      1.0000 0.71699  0.04576  0.12218  Biso   1.000  O 
  O13      1.0000 0.78302  0.45424  0.62218  Biso   1.000  O 
  O14      1.0000 0.71699  0.45424  0.12218  Biso   1.000  O 
  O15      1.0000 0.78302  0.04576  0.62218  Biso   1.000  O 
  O16      1.0000 0.28302  0.95424  0.87782  Biso   1.000  O 
