data_image0
_cell_length_a       7.66645
_cell_length_b       8.24067
_cell_length_c       8.28261
_cell_angle_alpha    91.2941
_cell_angle_beta     90.458
_cell_angle_gamma    90.4844

_symmetry_space_group_name_H-M    "P 1"
_symmetry_int_tables_number       1

loop_
  _symmetry_equiv_pos_as_xyz
  'x, y, z'

loop_
  _atom_site_label
  _atom_site_occupancy
  _atom_site_fract_x
  _atom_site_fract_y
  _atom_site_fract_z
  _atom_site_thermal_displace_type
  _atom_site_B_iso_or_equiv
  _atom_site_type_symbol
  Ag1      1.0000 0.72374  0.75047  0.26035  Biso   1.000  Ag
  Ag2      1.0000 0.22374  0.75047  0.76035  Biso   1.000  Ag
  Ag3      1.0000 0.77626  0.24953  0.23965  Biso   1.000  Ag
  Ag4      1.0000 0.27626  0.24953  0.73965  Biso   1.000  Ag
  Ag5      1.0000 0.73380  0.74920  0.76838  Biso   1.000  Ag
  Ag6      1.0000 0.23380  0.74920  0.26838  Biso   1.000  Ag
  Ag7      1.0000 0.76620  0.25080  0.73162  Biso   1.000  Ag
  Ag8      1.0000 0.26620  0.25080  0.23162  Biso   1.000  Ag
  Cu1      1.0000 0.50000  1.00000  0.50000  Biso   1.000  Cu
  Cu2      1.0000 0.00000  0.00000  0.00000  Biso   1.000  Cu
  Cu3      1.0000 0.50000  1.00000  0.00000  Biso   1.000  Cu
  Cu4      1.0000 1.00000  1.00000  0.50000  Biso   1.000  Cu
  Cu5      1.0000 0.50000  0.50000  0.50000  Biso   1.000  Cu
  Cu6      1.0000 0.00000  0.50000  1.00000  Biso   1.000  Cu
  Cu7      1.0000 0.50000  0.50000  1.00000  Biso   1.000  Cu
  Cu8      1.0000 1.00000  0.50000  0.50000  Biso   1.000  Cu
  F1       1.0000 0.74983  0.96043  0.03973  Biso   1.000  F 
  F2       1.0000 0.24983  0.96043  0.53973  Biso   1.000  F 
  F3       1.0000 0.75017  0.03957  0.46027  Biso   1.000  F 
  F4       1.0000 0.25017  0.03957  0.96027  Biso   1.000  F 
  F5       1.0000 0.03852  0.04070  0.22595  Biso   1.000  F 
  F6       1.0000 0.53852  0.04070  0.72595  Biso   1.000  F 
  F7       1.0000 0.46148  0.95930  0.27405  Biso   1.000  F 
  F8       1.0000 0.96148  0.95930  0.77405  Biso   1.000  F 
  F9       1.0000 0.75067  0.54521  0.03664  Biso   1.000  F 
  F10      1.0000 0.25067  0.54521  0.53664  Biso   1.000  F 
  F11      1.0000 0.74933  0.45479  0.46336  Biso   1.000  F 
  F12      1.0000 0.24933  0.45479  0.96336  Biso   1.000  F 
  F13      1.0000 0.03829  0.46074  0.27469  Biso   1.000  F 
  F14      1.0000 0.53829  0.46074  0.77469  Biso   1.000  F 
  F15      1.0000 0.46171  0.53926  0.22531  Biso   1.000  F 
  F16      1.0000 0.96171  0.53926  0.72531  Biso   1.000  F 
  F17      1.0000 0.55077  0.72626  0.52677  Biso   1.000  F 
  F18      1.0000 0.05077  0.72626  0.02677  Biso   1.000  F 
  F19      1.0000 0.94923  0.27374  0.97323  Biso   1.000  F 
  F20      1.0000 0.44923  0.27374  0.47323  Biso   1.000  F 
  F21      1.0000 0.96708  0.77384  0.45055  Biso   1.000  F 
  F22      1.0000 0.46708  0.77384  0.95055  Biso   1.000  F 
  F23      1.0000 0.53292  0.22616  0.04945  Biso   1.000  F 
  F24      1.0000 0.03292  0.22616  0.54945  Biso   1.000  F 
