data_image0
_cell_length_a       6.1519
_cell_length_b       6.1519
_cell_length_c       8.29887
_cell_angle_alpha    84.3324
_cell_angle_beta     84.3324
_cell_angle_gamma    85.4246

_symmetry_space_group_name_H-M    "P 1"
_symmetry_int_tables_number       1

loop_
  _symmetry_equiv_pos_as_xyz
  'x, y, z'

loop_
  _atom_site_label
  _atom_site_occupancy
  _atom_site_fract_x
  _atom_site_fract_y
  _atom_site_fract_z
  _atom_site_thermal_displace_type
  _atom_site_B_iso_or_equiv
  _atom_site_type_symbol
  Ag1      1.0000 0.05723  0.76168  0.10187  Biso   1.000  Ag
  Ag2      1.0000 0.23832  0.94277  0.39813  Biso   1.000  Ag
  Ag3      1.0000 0.94277  0.23832  0.89813  Biso   1.000  Ag
  Ag4      1.0000 0.76168  0.05723  0.60187  Biso   1.000  Ag
  S1       1.0000 0.78389  0.74278  0.79886  Biso   1.000  S 
  S2       1.0000 0.25722  0.21611  0.70114  Biso   1.000  S 
  S3       1.0000 0.21611  0.25722  0.20114  Biso   1.000  S 
  S4       1.0000 0.74278  0.78389  0.29886  Biso   1.000  S 
  N1       1.0000 0.75820  0.35332  0.45225  Biso   1.000  N 
  N2       1.0000 0.64668  0.24180  0.04775  Biso   1.000  N 
  N3       1.0000 0.24180  0.64668  0.54775  Biso   1.000  N 
  N4       1.0000 0.35332  0.75820  0.95225  Biso   1.000  N 
  C1       1.0000 0.75483  0.53245  0.38745  Biso   1.000  C 
  C2       1.0000 0.46755  0.24517  0.11255  Biso   1.000  C 
  C3       1.0000 0.24517  0.46755  0.61255  Biso   1.000  C 
  C4       1.0000 0.53245  0.75483  0.88745  Biso   1.000  C 
