data_image0
_cell_length_a       7.09271
_cell_length_b       7.09271
_cell_length_c       7.09271
_cell_angle_alpha    29.3792
_cell_angle_beta     29.3792
_cell_angle_gamma    29.3792

_symmetry_space_group_name_H-M    "P 1"
_symmetry_int_tables_number       1

loop_
  _symmetry_equiv_pos_as_xyz
  'x, y, z'

loop_
  _atom_site_label
  _atom_site_occupancy
  _atom_site_fract_x
  _atom_site_fract_y
  _atom_site_fract_z
  _atom_site_thermal_displace_type
  _atom_site_B_iso_or_equiv
  _atom_site_type_symbol
  Ag1      1.0000 0.15300  0.15300  0.15300  Biso   1.000  Ag
  Cr1      1.0000 0.00008  0.00008  0.00008  Biso   1.000  Cr
  S1       1.0000 0.27169  0.27169  0.27169  Biso   1.000  S 
  S2       1.0000 0.73424  0.73424  0.73424  Biso   1.000  S 
