data_image0
_cell_length_a       4.57295
_cell_length_b       5.42642
_cell_length_c       23.6546
_cell_angle_alpha    90
_cell_angle_beta     90
_cell_angle_gamma    90

_symmetry_space_group_name_H-M    "P 1"
_symmetry_int_tables_number       1

loop_
  _symmetry_equiv_pos_as_xyz
  'x, y, z'

loop_
  _atom_site_label
  _atom_site_occupancy
  _atom_site_fract_x
  _atom_site_fract_y
  _atom_site_fract_z
  _atom_site_thermal_displace_type
  _atom_site_B_iso_or_equiv
  _atom_site_type_symbol
  Pb1      1.0000 0.25000  0.26359  0.52424  Biso   1.000  Pb
  Pb2      1.0000 0.25000  0.23641  0.02424  Biso   1.000  Pb
  Pb3      1.0000 0.75000  0.73641  0.47576  Biso   1.000  Pb
  Pb4      1.0000 0.75000  0.76359  0.97576  Biso   1.000  Pb
  Ag1      1.0000 0.25000  0.39277  0.28137  Biso   1.000  Ag
  Ag2      1.0000 0.25000  0.10723  0.78137  Biso   1.000  Ag
  Ag3      1.0000 0.75000  0.60723  0.71863  Biso   1.000  Ag
  Ag4      1.0000 0.75000  0.89277  0.21863  Biso   1.000  Ag
  S1       1.0000 0.75000  0.39361  0.23365  Biso   1.000  S 
  S2       1.0000 0.75000  0.10639  0.73365  Biso   1.000  S 
  S3       1.0000 0.25000  0.60639  0.76635  Biso   1.000  S 
  S4       1.0000 0.25000  0.89361  0.26635  Biso   1.000  S 
  C1       1.0000 0.75000  0.39102  0.16411  Biso   1.000  C 
  C2       1.0000 0.75000  0.10898  0.66411  Biso   1.000  C 
  C3       1.0000 0.25000  0.60898  0.83589  Biso   1.000  C 
  C4       1.0000 0.25000  0.89102  0.33589  Biso   1.000  C 
  C5       1.0000 0.25000  0.39026  0.37372  Biso   1.000  C 
  C6       1.0000 0.25000  0.10974  0.87372  Biso   1.000  C 
  C7       1.0000 0.75000  0.60974  0.62628  Biso   1.000  C 
  C8       1.0000 0.75000  0.89026  0.12628  Biso   1.000  C 
  N1       1.0000 0.75000  0.38922  0.11437  Biso   1.000  N 
  N2       1.0000 0.75000  0.11078  0.61437  Biso   1.000  N 
  N3       1.0000 0.25000  0.61078  0.88563  Biso   1.000  N 
  N4       1.0000 0.25000  0.88922  0.38563  Biso   1.000  N 
  N5       1.0000 0.25000  0.38835  0.42351  Biso   1.000  N 
  N6       1.0000 0.25000  0.11165  0.92351  Biso   1.000  N 
  N7       1.0000 0.75000  0.61165  0.57649  Biso   1.000  N 
  N8       1.0000 0.75000  0.88835  0.07649  Biso   1.000  N 
  O1       1.0000 0.25000  0.80222  0.51925  Biso   1.000  O 
  O2       1.0000 0.25000  0.69778  0.01925  Biso   1.000  O 
  O3       1.0000 0.75000  0.19778  0.48075  Biso   1.000  O 
  O4       1.0000 0.75000  0.30222  0.98075  Biso   1.000  O 
  H1       1.0000 0.25000  0.77717  0.56026  Biso   1.000  H 
  H2       1.0000 0.25000  0.72283  0.06026  Biso   1.000  H 
  H3       1.0000 0.75000  0.22283  0.43974  Biso   1.000  H 
  H4       1.0000 0.75000  0.27717  0.93974  Biso   1.000  H 
