data_image0
_cell_length_a       6.6481
_cell_length_b       9.52899
_cell_length_c       11.3787
_cell_angle_alpha    79.0644
_cell_angle_beta     78.6714
_cell_angle_gamma    74.7317

_symmetry_space_group_name_H-M    "P 1"
_symmetry_int_tables_number       1

loop_
  _symmetry_equiv_pos_as_xyz
  'x, y, z'

loop_
  _atom_site_label
  _atom_site_occupancy
  _atom_site_fract_x
  _atom_site_fract_y
  _atom_site_fract_z
  _atom_site_thermal_displace_type
  _atom_site_B_iso_or_equiv
  _atom_site_type_symbol
  Ag1      1.0000 0.61483  0.12953  0.15886  Biso   1.000  Ag
  Ag2      1.0000 0.61483  0.12953  0.65886  Biso   1.000  Ag
  Ag3      1.0000 0.38517  0.87047  0.34114  Biso   1.000  Ag
  Ag4      1.0000 0.38517  0.87047  0.84114  Biso   1.000  Ag
  Ag5      1.0000 0.52682  0.23537  0.40987  Biso   1.000  Ag
  Ag6      1.0000 0.52682  0.23537  0.90987  Biso   1.000  Ag
  Ag7      1.0000 0.47318  0.76463  0.09013  Biso   1.000  Ag
  Ag8      1.0000 0.47318  0.76463  0.59013  Biso   1.000  Ag
  Co1      1.0000 0.82663  0.43747  0.10681  Biso   1.000  Co
  Co2      1.0000 0.17337  0.56253  0.89319  Biso   1.000  Co
  Co3      1.0000 0.82663  0.43747  0.60681  Biso   1.000  Co
  Co4      1.0000 0.17337  0.56253  0.39319  Biso   1.000  Co
  Co5      1.0000 0.05851  0.21058  0.33556  Biso   1.000  Co
  Co6      1.0000 0.94149  0.78942  0.66444  Biso   1.000  Co
  Co7      1.0000 0.05851  0.21058  0.83556  Biso   1.000  Co
  Co8      1.0000 0.94149  0.78942  0.16444  Biso   1.000  Co
  P1       1.0000 0.28330  0.47076  0.15853  Biso   1.000  P 
  P2       1.0000 0.28330  0.47076  0.65853  Biso   1.000  P 
  P3       1.0000 0.71670  0.52924  0.34147  Biso   1.000  P 
  P4       1.0000 0.71670  0.52924  0.84147  Biso   1.000  P 
  P5       1.0000 0.13700  0.10153  0.09535  Biso   1.000  P 
  P6       1.0000 0.13700  0.10153  0.59535  Biso   1.000  P 
  P7       1.0000 0.86300  0.89847  0.40465  Biso   1.000  P 
  P8       1.0000 0.86300  0.89847  0.90465  Biso   1.000  P 
  O1       1.0000 0.16142  0.44673  0.06334  Biso   1.000  O 
  O2       1.0000 0.16142  0.44673  0.56334  Biso   1.000  O 
  O3       1.0000 0.83858  0.55327  0.43666  Biso   1.000  O 
  O4       1.0000 0.83858  0.55327  0.93666  Biso   1.000  O 
  O5       1.0000 0.22596  0.64005  0.16891  Biso   1.000  O 
  O6       1.0000 0.22596  0.64005  0.66891  Biso   1.000  O 
  O7       1.0000 0.77404  0.35995  0.33109  Biso   1.000  O 
  O8       1.0000 0.77404  0.35995  0.83109  Biso   1.000  O 
  O9       1.0000 0.52211  0.41285  0.12833  Biso   1.000  O 
  O10      1.0000 0.52211  0.41285  0.62833  Biso   1.000  O 
  O11      1.0000 0.47789  0.58715  0.37167  Biso   1.000  O 
  O12      1.0000 0.47789  0.58715  0.87167  Biso   1.000  O 
  O13      1.0000 0.20033  0.39750  0.28802  Biso   1.000  O 
  O14      1.0000 0.20033  0.39750  0.78802  Biso   1.000  O 
  O15      1.0000 0.79967  0.60250  0.21198  Biso   1.000  O 
  O16      1.0000 0.79967  0.60250  0.71198  Biso   1.000  O 
  O17      1.0000 0.92054  0.21628  0.10572  Biso   1.000  O 
  O18      1.0000 0.92054  0.21628  0.60572  Biso   1.000  O 
  O19      1.0000 0.07946  0.78372  0.39428  Biso   1.000  O 
  O20      1.0000 0.07946  0.78372  0.89428  Biso   1.000  O 
  O21      1.0000 0.10789  0.94416  0.11667  Biso   1.000  O 
  O22      1.0000 0.10789  0.94416  0.61667  Biso   1.000  O 
  O23      1.0000 0.89211  0.05584  0.38333  Biso   1.000  O 
  O24      1.0000 0.89211  0.05584  0.88333  Biso   1.000  O 
  O25      1.0000 0.25775  0.13354  0.46363  Biso   1.000  O 
  O26      1.0000 0.25775  0.13354  0.96363  Biso   1.000  O 
  O27      1.0000 0.74225  0.86646  0.03637  Biso   1.000  O 
  O28      1.0000 0.74225  0.86646  0.53637  Biso   1.000  O 
  O29      1.0000 0.26437  0.11840  0.19254  Biso   1.000  O 
  O30      1.0000 0.26437  0.11840  0.69254  Biso   1.000  O 
  O31      1.0000 0.73563  0.88160  0.30746  Biso   1.000  O 
  O32      1.0000 0.73563  0.88160  0.80746  Biso   1.000  O 
