data_image0
_cell_length_a       4.59749
_cell_length_b       7.70313
_cell_length_c       8.46779
_cell_angle_alpha    90
_cell_angle_beta     90
_cell_angle_gamma    90

_symmetry_space_group_name_H-M    "P 1"
_symmetry_int_tables_number       1

loop_
  _symmetry_equiv_pos_as_xyz
  'x, y, z'

loop_
  _atom_site_label
  _atom_site_occupancy
  _atom_site_fract_x
  _atom_site_fract_y
  _atom_site_fract_z
  _atom_site_thermal_displace_type
  _atom_site_B_iso_or_equiv
  _atom_site_type_symbol
  Ag1      1.0000 0.25000  0.64414  0.43379  Biso   1.000  Ag
  Ag2      1.0000 0.25000  0.14414  0.06621  Biso   1.000  Ag
  Ag3      1.0000 0.75000  0.35586  0.56621  Biso   1.000  Ag
  Ag4      1.0000 0.75000  0.85586  0.93379  Biso   1.000  Ag
  Ca1      1.0000 0.25000  0.51956  0.80488  Biso   1.000  Ca
  Ca2      1.0000 0.25000  0.01956  0.69512  Biso   1.000  Ca
  Ca3      1.0000 0.75000  0.48044  0.19512  Biso   1.000  Ca
  Ca4      1.0000 0.75000  0.98044  0.30488  Biso   1.000  Ca
  Sb1      1.0000 0.25000  0.75807  0.11163  Biso   1.000  Sb
  Sb2      1.0000 0.25000  0.25807  0.38837  Biso   1.000  Sb
  Sb3      1.0000 0.75000  0.24193  0.88837  Biso   1.000  Sb
  Sb4      1.0000 0.75000  0.74193  0.61163  Biso   1.000  Sb
