data_image0
_cell_length_a       3.68001
_cell_length_b       3.68001
_cell_length_c       17.9837
_cell_angle_alpha    93.7924
_cell_angle_beta     93.7924
_cell_angle_gamma    59.5917

_symmetry_space_group_name_H-M    "P 1"
_symmetry_int_tables_number       1

loop_
  _symmetry_equiv_pos_as_xyz
  'x, y, z'

loop_
  _atom_site_label
  _atom_site_occupancy
  _atom_site_fract_x
  _atom_site_fract_y
  _atom_site_fract_z
  _atom_site_thermal_displace_type
  _atom_site_B_iso_or_equiv
  _atom_site_type_symbol
  Ag1      1.0000 1.00000  0.50000  1.00000  Biso   1.000  Ag
  Ag2      1.0000 0.50000  1.00000  0.50000  Biso   1.000  Ag
  Na1      1.0000 0.08113  0.91887  0.75000  Biso   1.000  Na
  Na2      1.0000 0.91887  0.08113  0.25000  Biso   1.000  Na
  C1       1.0000 0.57352  0.84144  0.38914  Biso   1.000  C 
  C2       1.0000 0.15856  0.42648  0.11086  Biso   1.000  C 
  C3       1.0000 0.42648  0.15856  0.61086  Biso   1.000  C 
  C4       1.0000 0.84144  0.57352  0.88914  Biso   1.000  C 
  N1       1.0000 0.60942  0.75707  0.32497  Biso   1.000  N 
  N2       1.0000 0.24293  0.39058  0.17503  Biso   1.000  N 
  N3       1.0000 0.39058  0.24293  0.67503  Biso   1.000  N 
  N4       1.0000 0.75707  0.60942  0.82497  Biso   1.000  N 
