data_image0
_cell_length_a       9.56349
_cell_length_b       9.56349
_cell_length_c       9.56349
_cell_angle_alpha    116.378
_cell_angle_beta     116.378
_cell_angle_gamma    116.378

_symmetry_space_group_name_H-M    "P 1"
_symmetry_int_tables_number       1

loop_
  _symmetry_equiv_pos_as_xyz
  'x, y, z'

loop_
  _atom_site_label
  _atom_site_occupancy
  _atom_site_fract_x
  _atom_site_fract_y
  _atom_site_fract_z
  _atom_site_thermal_displace_type
  _atom_site_B_iso_or_equiv
  _atom_site_type_symbol
  Ag1      1.0000 0.07300  0.87997  0.23007  Biso   1.000  Ag
  Ag2      1.0000 0.87997  0.23007  0.07300  Biso   1.000  Ag
  Ag3      1.0000 0.23007  0.07300  0.87997  Biso   1.000  Ag
  Ag4      1.0000 0.92700  0.12003  0.76993  Biso   1.000  Ag
  Ag5      1.0000 0.12003  0.76993  0.92700  Biso   1.000  Ag
  Ag6      1.0000 0.76993  0.92700  0.12003  Biso   1.000  Ag
  C1       1.0000 0.38843  0.04138  0.32172  Biso   1.000  C 
  C2       1.0000 0.04138  0.32172  0.38843  Biso   1.000  C 
  C3       1.0000 0.32172  0.38843  0.04138  Biso   1.000  C 
  C4       1.0000 0.61157  0.95862  0.67828  Biso   1.000  C 
  C5       1.0000 0.95862  0.67828  0.61157  Biso   1.000  C 
  C6       1.0000 0.67828  0.61157  0.95862  Biso   1.000  C 
  N1       1.0000 0.61015  0.17850  0.47924  Biso   1.000  N 
  N2       1.0000 0.17850  0.47924  0.61015  Biso   1.000  N 
  N3       1.0000 0.47924  0.61015  0.17850  Biso   1.000  N 
  N4       1.0000 0.38985  0.82150  0.52076  Biso   1.000  N 
  N5       1.0000 0.82150  0.52076  0.38985  Biso   1.000  N 
  N6       1.0000 0.52076  0.38985  0.82150  Biso   1.000  N 
  O1       1.0000 0.84387  0.33401  0.64492  Biso   1.000  O 
  O2       1.0000 0.33401  0.64492  0.84387  Biso   1.000  O 
  O3       1.0000 0.64492  0.84387  0.33401  Biso   1.000  O 
  O4       1.0000 0.15613  0.66599  0.35508  Biso   1.000  O 
  O5       1.0000 0.66599  0.35508  0.15613  Biso   1.000  O 
  O6       1.0000 0.35508  0.15613  0.66599  Biso   1.000  O 
