data_image0
_cell_length_a       6.97308
_cell_length_b       6.97308
_cell_length_c       6.97308
_cell_angle_alpha    126.631
_cell_angle_beta     110.459
_cell_angle_gamma    93.084

_symmetry_space_group_name_H-M    "P 1"
_symmetry_int_tables_number       1

loop_
  _symmetry_equiv_pos_as_xyz
  'x, y, z'

loop_
  _atom_site_label
  _atom_site_occupancy
  _atom_site_fract_x
  _atom_site_fract_y
  _atom_site_fract_z
  _atom_site_thermal_displace_type
  _atom_site_B_iso_or_equiv
  _atom_site_type_symbol
  Ag1      1.0000 0.38578  0.11214  0.22636  Biso   1.000  Ag
  Ag2      1.0000 0.61422  0.84058  0.72636  Biso   1.000  Ag
  C1       1.0000 0.19732  0.35671  0.65939  Biso   1.000  C 
  C2       1.0000 0.80268  0.46206  0.15939  Biso   1.000  C 
  N1       1.0000 0.25633  0.25225  0.49591  Biso   1.000  N 
  N2       1.0000 0.74367  0.23958  0.99591  Biso   1.000  N 
  C3       1.0000 0.12573  0.47923  0.85349  Biso   1.000  C 
  C4       1.0000 0.87427  0.72776  0.35349  Biso   1.000  C 
  C5       1.0000 0.75568  0.85789  0.29634  Biso   1.000  C 
  C6       1.0000 0.93845  0.54066  0.79634  Biso   1.000  C 
  C7       1.0000 0.06155  0.85789  0.60221  Biso   1.000  C 
  C8       1.0000 0.24432  0.54066  0.10221  Biso   1.000  C 
  N3       1.0000 0.65394  0.96165  0.24059  Biso   1.000  N 
  N4       1.0000 0.77894  0.58665  0.74059  Biso   1.000  N 
  N5       1.0000 0.22106  0.96165  0.80771  Biso   1.000  N 
  N6       1.0000 0.34606  0.58665  0.30771  Biso   1.000  N 
