data_image0
_cell_length_a       3.0468
_cell_length_b       3.0178
_cell_length_c       12.3854
_cell_angle_alpha    90.0692
_cell_angle_beta     90.3007
_cell_angle_gamma    120.319

_symmetry_space_group_name_H-M    "P 1"
_symmetry_int_tables_number       1

loop_
  _symmetry_equiv_pos_as_xyz
  'x, y, z'

loop_
  _atom_site_label
  _atom_site_occupancy
  _atom_site_fract_x
  _atom_site_fract_y
  _atom_site_fract_z
  _atom_site_thermal_displace_type
  _atom_site_B_iso_or_equiv
  _atom_site_type_symbol
  Ag1      1.0000 0.32010  0.64749  0.24998  Biso   1.000  Ag
  Ag2      1.0000 0.67990  0.35256  0.75002  Biso   1.000  Ag
  Co1      1.0000 1.00000  0.00003  1.00000  Biso   1.000  Co
  Co2      1.0000 1.00000  0.00002  0.50000  Biso   1.000  Co
  O1       1.0000 0.32982  0.65747  0.08231  Biso   1.000  O 
  O2       1.0000 0.32424  0.65369  0.41776  Biso   1.000  O 
  O3       1.0000 0.67576  0.34634  0.58224  Biso   1.000  O 
  O4       1.0000 0.67018  0.34260  0.91769  Biso   1.000  O 
