data_image0
_cell_length_a       6.69528
_cell_length_b       7.01303
_cell_length_c       8.2248
_cell_angle_alpha    90
_cell_angle_beta     90
_cell_angle_gamma    90

_symmetry_space_group_name_H-M    "P 1"
_symmetry_int_tables_number       1

loop_
  _symmetry_equiv_pos_as_xyz
  'x, y, z'

loop_
  _atom_site_label
  _atom_site_occupancy
  _atom_site_fract_x
  _atom_site_fract_y
  _atom_site_fract_z
  _atom_site_thermal_displace_type
  _atom_site_B_iso_or_equiv
  _atom_site_type_symbol
  Ag1      1.0000 0.00848  0.66076  0.50000  Biso   1.000  Ag
  Ag2      1.0000 0.50848  0.33924  0.00000  Biso   1.000  Ag
  Cd1      1.0000 0.01194  0.17409  0.75252  Biso   1.000  Cd
  Cd2      1.0000 0.01194  0.17409  0.24748  Biso   1.000  Cd
  Cd3      1.0000 0.51194  0.82591  0.74748  Biso   1.000  Cd
  Cd4      1.0000 0.51194  0.82591  0.25252  Biso   1.000  Cd
  Ga1      1.0000 0.01005  0.67558  0.00000  Biso   1.000  Ga
  Ga2      1.0000 0.51005  0.32442  0.50000  Biso   1.000  Ga
  S1       1.0000 0.89629  0.82439  0.76564  Biso   1.000  S 
  S2       1.0000 0.89629  0.82439  0.23436  Biso   1.000  S 
  S3       1.0000 0.39629  0.17561  0.73436  Biso   1.000  S 
  S4       1.0000 0.39629  0.17561  0.26564  Biso   1.000  S 
  S5       1.0000 0.85671  0.32394  0.50000  Biso   1.000  S 
  S6       1.0000 0.35671  0.67606  0.00000  Biso   1.000  S 
  S7       1.0000 0.89253  0.36409  0.00000  Biso   1.000  S 
  S8       1.0000 0.39253  0.63591  0.50000  Biso   1.000  S 
