data_image0
_cell_length_a       14.7621
_cell_length_b       13.1664
_cell_length_c       7.97269
_cell_angle_alpha    84.8081
_cell_angle_beta     62.6538
_cell_angle_gamma    32.5382

_symmetry_space_group_name_H-M    "P 1"
_symmetry_int_tables_number       1

loop_
  _symmetry_equiv_pos_as_xyz
  'x, y, z'

loop_
  _atom_site_label
  _atom_site_occupancy
  _atom_site_fract_x
  _atom_site_fract_y
  _atom_site_fract_z
  _atom_site_thermal_displace_type
  _atom_site_B_iso_or_equiv
  _atom_site_type_symbol
  Cs1      1.0000 0.42994  0.42994  0.07006  Biso   1.000  Cs
  Cs2      1.0000 0.07006  0.07006  0.42994  Biso   1.000  Cs
  Cs3      1.0000 0.82006  0.82006  0.17994  Biso   1.000  Cs
  Cs4      1.0000 0.17994  0.17994  0.82006  Biso   1.000  Cs
  Ag1      1.0000 0.50000  0.50000  0.50000  Biso   1.000  Ag
  Ag2      1.0000 0.75000  0.75000  0.75000  Biso   1.000  Ag
  Nb1      1.0000 0.00000  0.00000  0.00000  Biso   1.000  Nb
  Nb2      1.0000 0.25000  0.25000  0.25000  Biso   1.000  Nb
  Se1      1.0000 0.06704  0.82154  0.73708  Biso   1.000  Se
  Se2      1.0000 0.37434  0.73708  0.82154  Biso   1.000  Se
  Se3      1.0000 0.73708  0.37434  0.06704  Biso   1.000  Se
  Se4      1.0000 0.82154  0.06704  0.37434  Biso   1.000  Se
  Se5      1.0000 0.18296  0.42846  0.51292  Biso   1.000  Se
  Se6      1.0000 0.87566  0.51292  0.42846  Biso   1.000  Se
  Se7      1.0000 0.51292  0.87566  0.18296  Biso   1.000  Se
  Se8      1.0000 0.42846  0.18296  0.87566  Biso   1.000  Se
