data_image0
_cell_length_a       4.53422
_cell_length_b       9.39518
_cell_length_c       18.1644
_cell_angle_alpha    90
_cell_angle_beta     90
_cell_angle_gamma    90

_symmetry_space_group_name_H-M    "P 1"
_symmetry_int_tables_number       1

loop_
  _symmetry_equiv_pos_as_xyz
  'x, y, z'

loop_
  _atom_site_label
  _atom_site_occupancy
  _atom_site_fract_x
  _atom_site_fract_y
  _atom_site_fract_z
  _atom_site_thermal_displace_type
  _atom_site_B_iso_or_equiv
  _atom_site_type_symbol
  Ag1      1.0000 0.25000  0.87693  0.86885  Biso   1.000  Ag
  Ag2      1.0000 0.25000  0.37693  0.63115  Biso   1.000  Ag
  Ag3      1.0000 0.75000  0.12307  0.13115  Biso   1.000  Ag
  Ag4      1.0000 0.75000  0.62307  0.36885  Biso   1.000  Ag
  Rb1      1.0000 0.75000  0.57838  0.78650  Biso   1.000  Rb
  Rb2      1.0000 0.75000  0.07838  0.71350  Biso   1.000  Rb
  Rb3      1.0000 0.25000  0.42162  0.21350  Biso   1.000  Rb
  Rb4      1.0000 0.25000  0.92162  0.28650  Biso   1.000  Rb
  Rb5      1.0000 0.25000  0.26017  0.95641  Biso   1.000  Rb
  Rb6      1.0000 0.25000  0.76017  0.54359  Biso   1.000  Rb
  Rb7      1.0000 0.75000  0.73983  0.04359  Biso   1.000  Rb
  Rb8      1.0000 0.75000  0.23983  0.45641  Biso   1.000  Rb
  Cl1      1.0000 0.25000  0.62369  0.92700  Biso   1.000  Cl
  Cl2      1.0000 0.25000  0.12369  0.57300  Biso   1.000  Cl
  Cl3      1.0000 0.75000  0.37631  0.07300  Biso   1.000  Cl
  Cl4      1.0000 0.75000  0.87631  0.42700  Biso   1.000  Cl
  Cl5      1.0000 0.25000  0.81736  0.72766  Biso   1.000  Cl
  Cl6      1.0000 0.25000  0.31736  0.77234  Biso   1.000  Cl
  Cl7      1.0000 0.75000  0.18264  0.27234  Biso   1.000  Cl
  Cl8      1.0000 0.75000  0.68264  0.22766  Biso   1.000  Cl
  Cl9      1.0000 0.75000  0.00469  0.90161  Biso   1.000  Cl
  Cl10     1.0000 0.75000  0.50469  0.59839  Biso   1.000  Cl
  Cl11     1.0000 0.25000  0.99531  0.09839  Biso   1.000  Cl
  Cl12     1.0000 0.25000  0.49531  0.40161  Biso   1.000  Cl
