data_image0
_cell_length_a       10.0139
_cell_length_b       10.0139
_cell_length_c       5.68129
_cell_angle_alpha    90
_cell_angle_beta     90
_cell_angle_gamma    154.202

_symmetry_space_group_name_H-M    "P 1"
_symmetry_int_tables_number       1

loop_
  _symmetry_equiv_pos_as_xyz
  'x, y, z'

loop_
  _atom_site_label
  _atom_site_occupancy
  _atom_site_fract_x
  _atom_site_fract_y
  _atom_site_fract_z
  _atom_site_thermal_displace_type
  _atom_site_B_iso_or_equiv
  _atom_site_type_symbol
  Cs1      1.0000 0.41506  0.58494  0.25000  Biso   1.000  Cs
  Cs2      1.0000 0.58494  0.41506  0.75000  Biso   1.000  Cs
  Ag1      1.0000 0.20001  0.79999  0.25000  Biso   1.000  Ag
  Ag2      1.0000 0.79999  0.20001  0.75000  Biso   1.000  Ag
  Cl1      1.0000 0.77600  0.22400  0.25000  Biso   1.000  Cl
  Cl2      1.0000 0.22400  0.77600  0.75000  Biso   1.000  Cl
  Cl3      1.0000 0.06993  0.93007  0.25000  Biso   1.000  Cl
  Cl4      1.0000 0.93007  0.06993  0.75000  Biso   1.000  Cl
