data_image0
_cell_length_a       7.98028
_cell_length_b       7.98028
_cell_length_c       7.98028
_cell_angle_alpha    98.95
_cell_angle_beta     98.95
_cell_angle_gamma    133.54

_symmetry_space_group_name_H-M    "P 1"
_symmetry_int_tables_number       1

loop_
  _symmetry_equiv_pos_as_xyz
  'x, y, z'

loop_
  _atom_site_label
  _atom_site_occupancy
  _atom_site_fract_x
  _atom_site_fract_y
  _atom_site_fract_z
  _atom_site_thermal_displace_type
  _atom_site_B_iso_or_equiv
  _atom_site_type_symbol
  Ag1      1.0000 0.10869  0.60869  0.21738  Biso   1.000  Ag
  Ag2      1.0000 0.39131  0.89131  0.78262  Biso   1.000  Ag
  Ag3      1.0000 0.39131  0.60869  0.50000  Biso   1.000  Ag
  Ag4      1.0000 0.10869  0.89131  0.50000  Biso   1.000  Ag
  Cs1      1.0000 0.44441  0.25092  0.19350  Biso   1.000  Cs
  Cs2      1.0000 0.05742  0.25092  0.80650  Biso   1.000  Cs
  Cs3      1.0000 0.74908  0.94258  0.19350  Biso   1.000  Cs
  Cs4      1.0000 0.74908  0.55559  0.80650  Biso   1.000  Cs
  O1       1.0000 0.53479  0.75266  0.78213  Biso   1.000  O 
  O2       1.0000 0.97053  0.75266  0.21787  Biso   1.000  O 
  O3       1.0000 0.24734  0.02947  0.78213  Biso   1.000  O 
  O4       1.0000 0.24734  0.46521  0.21787  Biso   1.000  O 
