data_image0
_cell_length_a       9.9892
_cell_length_b       7.04873
_cell_length_c       5.51108
_cell_angle_alpha    90
_cell_angle_beta     90
_cell_angle_gamma    90

_symmetry_space_group_name_H-M    "P 1"
_symmetry_int_tables_number       1

loop_
  _symmetry_equiv_pos_as_xyz
  'x, y, z'

loop_
  _atom_site_label
  _atom_site_occupancy
  _atom_site_fract_x
  _atom_site_fract_y
  _atom_site_fract_z
  _atom_site_thermal_displace_type
  _atom_site_B_iso_or_equiv
  _atom_site_type_symbol
  Ag1      1.0000 0.34990  0.25000  0.00200  Biso   1.000  Ag
  Ag2      1.0000 0.84990  0.25000  0.49800  Biso   1.000  Ag
  Ag3      1.0000 0.15010  0.75000  0.50200  Biso   1.000  Ag
  Ag4      1.0000 0.65010  0.75000  0.99800  Biso   1.000  Ag
  V1       1.0000 0.67935  0.25000  0.01011  Biso   1.000  V 
  V2       1.0000 0.17935  0.25000  0.48989  Biso   1.000  V 
  V3       1.0000 0.82065  0.75000  0.51011  Biso   1.000  V 
  V4       1.0000 0.32065  0.75000  0.98989  Biso   1.000  V 
  Cd1      1.0000 0.50000  0.50000  0.50000  Biso   1.000  Cd
  Cd2      1.0000 0.00000  0.50000  0.00000  Biso   1.000  Cd
  Cd3      1.0000 0.50000  0.00000  0.50000  Biso   1.000  Cd
  Cd4      1.0000 0.00000  0.00000  0.00000  Biso   1.000  Cd
  O1       1.0000 0.85721  0.25000  0.06191  Biso   1.000  O 
  O2       1.0000 0.35721  0.25000  0.43809  Biso   1.000  O 
  O3       1.0000 0.64279  0.75000  0.56191  Biso   1.000  O 
  O4       1.0000 0.14279  0.75000  0.93809  Biso   1.000  O 
  O5       1.0000 0.62633  0.25000  0.70431  Biso   1.000  O 
  O6       1.0000 0.12633  0.25000  0.79569  Biso   1.000  O 
  O7       1.0000 0.87367  0.75000  0.20431  Biso   1.000  O 
  O8       1.0000 0.37367  0.75000  0.29569  Biso   1.000  O 
  O9       1.0000 0.61769  0.44832  0.15341  Biso   1.000  O 
  O10      1.0000 0.11769  0.44832  0.34659  Biso   1.000  O 
  O11      1.0000 0.61769  0.05168  0.15341  Biso   1.000  O 
  O12      1.0000 0.88231  0.94832  0.65341  Biso   1.000  O 
  O13      1.0000 0.38231  0.55168  0.84659  Biso   1.000  O 
  O14      1.0000 0.88231  0.55168  0.65341  Biso   1.000  O 
  O15      1.0000 0.38231  0.94832  0.84659  Biso   1.000  O 
  O16      1.0000 0.11769  0.05168  0.34659  Biso   1.000  O 
