data_image0
_cell_length_a       7.9827
_cell_length_b       7.9827
_cell_length_c       7.9827
_cell_angle_alpha    98.9424
_cell_angle_beta     98.9424
_cell_angle_gamma    133.56

_symmetry_space_group_name_H-M    "P 1"
_symmetry_int_tables_number       1

loop_
  _symmetry_equiv_pos_as_xyz
  'x, y, z'

loop_
  _atom_site_label
  _atom_site_occupancy
  _atom_site_fract_x
  _atom_site_fract_y
  _atom_site_fract_z
  _atom_site_thermal_displace_type
  _atom_site_B_iso_or_equiv
  _atom_site_type_symbol
  Ag1      1.0000 0.14131  0.14131  0.28262  Biso   1.000  Ag
  Ag2      1.0000 0.85869  0.85869  0.71738  Biso   1.000  Ag
  Ag3      1.0000 0.14131  0.85869  0.00000  Biso   1.000  Ag
  Ag4      1.0000 0.85869  0.14131  0.00000  Biso   1.000  Ag
  Cs1      1.0000 0.50000  0.19286  0.69286  Biso   1.000  Cs
  Cs2      1.0000 0.50000  0.80714  0.30714  Biso   1.000  Cs
  Cs3      1.0000 0.19286  0.50000  0.69286  Biso   1.000  Cs
  Cs4      1.0000 0.80714  0.50000  0.30714  Biso   1.000  Cs
  O1       1.0000 0.28205  0.00000  0.28205  Biso   1.000  O 
  O2       1.0000 0.71795  0.00000  0.71795  Biso   1.000  O 
  O3       1.0000 1.00000  0.71795  0.71795  Biso   1.000  O 
  O4       1.0000 0.00000  0.28205  0.28205  Biso   1.000  O 
