data_image0
_cell_length_a       6.00642
_cell_length_b       6.00642
_cell_length_c       3.91382
_cell_angle_alpha    90
_cell_angle_beta     90
_cell_angle_gamma    143.415

_symmetry_space_group_name_H-M    "P 1"
_symmetry_int_tables_number       1

loop_
  _symmetry_equiv_pos_as_xyz
  'x, y, z'

loop_
  _atom_site_label
  _atom_site_occupancy
  _atom_site_fract_x
  _atom_site_fract_y
  _atom_site_fract_z
  _atom_site_thermal_displace_type
  _atom_site_B_iso_or_equiv
  _atom_site_type_symbol
  Ag1      1.0000 0.60441  0.39559  0.25000  Biso   1.000  Ag
  Ag2      1.0000 0.39559  0.60441  0.75000  Biso   1.000  Ag
  Cl1      1.0000 0.86613  0.13387  0.25000  Biso   1.000  Cl
  Cl2      1.0000 0.13387  0.86613  0.75000  Biso   1.000  Cl
