data_image0
_cell_length_a       5.92083
_cell_length_b       5.92083
_cell_length_c       5.85956
_cell_angle_alpha    90
_cell_angle_beta     90
_cell_angle_gamma    133.474

_symmetry_space_group_name_H-M    "P 1"
_symmetry_int_tables_number       1

loop_
  _symmetry_equiv_pos_as_xyz
  'x, y, z'

loop_
  _atom_site_label
  _atom_site_occupancy
  _atom_site_fract_x
  _atom_site_fract_y
  _atom_site_fract_z
  _atom_site_thermal_displace_type
  _atom_site_B_iso_or_equiv
  _atom_site_type_symbol
  Ag1      1.0000 0.00000  0.00000  0.50000  Biso   1.000  Ag
  Ag2      1.0000 0.00000  0.00000  0.00000  Biso   1.000  Ag
  C1       1.0000 0.85932  0.14068  0.25000  Biso   1.000  C 
  C2       1.0000 0.14068  0.85932  0.75000  Biso   1.000  C 
  N1       1.0000 0.74978  0.25022  0.25000  Biso   1.000  N 
  N2       1.0000 0.25022  0.74978  0.75000  Biso   1.000  N 
  O1       1.0000 0.63688  0.36312  0.25000  Biso   1.000  O 
  O2       1.0000 0.36312  0.63688  0.75000  Biso   1.000  O 
