data_image0
_cell_length_a       14.1966
_cell_length_b       12.6685
_cell_length_c       7.6749
_cell_angle_alpha    84.7328
_cell_angle_beta     62.697
_cell_angle_gamma    32.5703

_symmetry_space_group_name_H-M    "P 1"
_symmetry_int_tables_number       1

loop_
  _symmetry_equiv_pos_as_xyz
  'x, y, z'

loop_
  _atom_site_label
  _atom_site_occupancy
  _atom_site_fract_x
  _atom_site_fract_y
  _atom_site_fract_z
  _atom_site_thermal_displace_type
  _atom_site_B_iso_or_equiv
  _atom_site_type_symbol
  Cs1      1.0000 0.07118  0.07118  0.42882  Biso   1.000  Cs
  Cs2      1.0000 0.42882  0.42882  0.07118  Biso   1.000  Cs
  Cs3      1.0000 0.17882  0.17882  0.82118  Biso   1.000  Cs
  Cs4      1.0000 0.82118  0.82118  0.17882  Biso   1.000  Cs
  Ag1      1.0000 0.75000  0.75000  0.75000  Biso   1.000  Ag
  Ag2      1.0000 0.50000  0.50000  0.50000  Biso   1.000  Ag
  Ta1      1.0000 0.25000  0.25000  0.25000  Biso   1.000  Ta
  Ta2      1.0000 0.00000  0.00000  0.00000  Biso   1.000  Ta
  S1       1.0000 0.74257  0.36604  0.06522  Biso   1.000  S 
  S2       1.0000 0.82616  0.06522  0.36604  Biso   1.000  S 
  S3       1.0000 0.06522  0.82616  0.74257  Biso   1.000  S 
  S4       1.0000 0.36604  0.74257  0.82616  Biso   1.000  S 
  S5       1.0000 0.50743  0.88396  0.18478  Biso   1.000  S 
  S6       1.0000 0.42384  0.18478  0.88396  Biso   1.000  S 
  S7       1.0000 0.18478  0.42384  0.50743  Biso   1.000  S 
  S8       1.0000 0.88396  0.50743  0.42384  Biso   1.000  S 
