data_image0
_cell_length_a       6.46155
_cell_length_b       6.46155
_cell_length_c       6.46155
_cell_angle_alpha    27.3062
_cell_angle_beta     27.3062
_cell_angle_gamma    27.3062

_symmetry_space_group_name_H-M    "P 1"
_symmetry_int_tables_number       1

loop_
  _symmetry_equiv_pos_as_xyz
  'x, y, z'

loop_
  _atom_site_label
  _atom_site_occupancy
  _atom_site_fract_x
  _atom_site_fract_y
  _atom_site_fract_z
  _atom_site_thermal_displace_type
  _atom_site_B_iso_or_equiv
  _atom_site_type_symbol
  Ag1      1.0000 0.00000  0.00000  0.00000  Biso   1.000  Ag
  Cr1      1.0000 0.50000  0.50000  0.50000  Biso   1.000  Cr
  O1       1.0000 0.11290  0.11290  0.11290  Biso   1.000  O 
  O2       1.0000 0.88710  0.88710  0.88710  Biso   1.000  O 
