data_image0
_cell_length_a       7.59993
_cell_length_b       7.59993
_cell_length_c       7.01191
_cell_angle_alpha    81.4871
_cell_angle_beta     81.4871
_cell_angle_gamma    31.6195

_symmetry_space_group_name_H-M    "P 1"
_symmetry_int_tables_number       1

loop_
  _symmetry_equiv_pos_as_xyz
  'x, y, z'

loop_
  _atom_site_label
  _atom_site_occupancy
  _atom_site_fract_x
  _atom_site_fract_y
  _atom_site_fract_z
  _atom_site_thermal_displace_type
  _atom_site_B_iso_or_equiv
  _atom_site_type_symbol
  Cr1      1.0000 0.49842  0.49842  0.49982  Biso   1.000  Cr
  Cr2      1.0000 0.99842  0.99842  0.99982  Biso   1.000  Cr
  Ag1      1.0000 0.21482  0.21482  0.93043  Biso   1.000  Ag
  Ag2      1.0000 0.71482  0.71482  0.43043  Biso   1.000  Ag
  Te1      1.0000 0.40133  0.40133  0.86827  Biso   1.000  Te
  Te2      1.0000 0.90133  0.90133  0.36827  Biso   1.000  Te
  Te3      1.0000 0.10144  0.10144  0.62947  Biso   1.000  Te
  Te4      1.0000 0.60144  0.60144  0.12947  Biso   1.000  Te
