data_image0
_cell_length_a       8.59955
_cell_length_b       8.59955
_cell_length_c       8.59955
_cell_angle_alpha    109.471
_cell_angle_beta     109.471
_cell_angle_gamma    109.471

_symmetry_space_group_name_H-M    "P 1"
_symmetry_int_tables_number       1

loop_
  _symmetry_equiv_pos_as_xyz
  'x, y, z'

loop_
  _atom_site_label
  _atom_site_occupancy
  _atom_site_fract_x
  _atom_site_fract_y
  _atom_site_fract_z
  _atom_site_thermal_displace_type
  _atom_site_B_iso_or_equiv
  _atom_site_type_symbol
  Ag1      1.0000 0.50000  0.50000  0.50000  Biso   1.000  Ag
  Ag2      1.0000 0.00000  0.50000  0.00000  Biso   1.000  Ag
  Ag3      1.0000 0.50000  0.00000  0.00000  Biso   1.000  Ag
  Ag4      1.0000 0.00000  0.00000  0.50000  Biso   1.000  Ag
  Sb1      1.0000 0.00000  0.00000  0.00000  Biso   1.000  Sb
  Sb2      1.0000 0.50000  0.50000  0.00000  Biso   1.000  Sb
  Sb3      1.0000 0.50000  0.00000  0.50000  Biso   1.000  Sb
  Sb4      1.0000 0.00000  0.50000  0.50000  Biso   1.000  Sb
  F1       1.0000 0.47122  0.79425  0.55234  Biso   1.000  F 
  F2       1.0000 0.05234  0.25809  0.08111  Biso   1.000  F 
  F3       1.0000 0.82302  0.24191  0.29425  Biso   1.000  F 
  F4       1.0000 0.67698  0.97122  0.41889  Biso   1.000  F 
  F5       1.0000 0.44766  0.52878  0.20575  Biso   1.000  F 
  F6       1.0000 0.08111  0.05234  0.25809  Biso   1.000  F 
  F7       1.0000 0.29425  0.82302  0.24191  Biso   1.000  F 
  F8       1.0000 0.41889  0.67698  0.97122  Biso   1.000  F 
  F9       1.0000 0.20575  0.44766  0.52878  Biso   1.000  F 
  F10      1.0000 0.25809  0.08111  0.05234  Biso   1.000  F 
  F11      1.0000 0.24191  0.29425  0.82302  Biso   1.000  F 
  F12      1.0000 0.97122  0.41889  0.67698  Biso   1.000  F 
  F13      1.0000 0.52878  0.20575  0.44766  Biso   1.000  F 
  F14      1.0000 0.94766  0.74191  0.91889  Biso   1.000  F 
  F15      1.0000 0.17698  0.75809  0.70575  Biso   1.000  F 
  F16      1.0000 0.32302  0.02878  0.58111  Biso   1.000  F 
  F17      1.0000 0.55234  0.47122  0.79425  Biso   1.000  F 
  F18      1.0000 0.91889  0.94766  0.74191  Biso   1.000  F 
  F19      1.0000 0.70575  0.17698  0.75809  Biso   1.000  F 
  F20      1.0000 0.58111  0.32302  0.02878  Biso   1.000  F 
  F21      1.0000 0.79425  0.55234  0.47122  Biso   1.000  F 
  F22      1.0000 0.74191  0.91889  0.94766  Biso   1.000  F 
  F23      1.0000 0.75809  0.70575  0.17698  Biso   1.000  F 
  F24      1.0000 0.02878  0.58111  0.32302  Biso   1.000  F 
