data_image0
_cell_length_a       5.35897
_cell_length_b       5.56948
_cell_length_c       9.02238
_cell_angle_alpha    75.9044
_cell_angle_beta     88.4678
_cell_angle_gamma    65.3117

_symmetry_space_group_name_H-M    "P 1"
_symmetry_int_tables_number       1

loop_
  _symmetry_equiv_pos_as_xyz
  'x, y, z'

loop_
  _atom_site_label
  _atom_site_occupancy
  _atom_site_fract_x
  _atom_site_fract_y
  _atom_site_fract_z
  _atom_site_thermal_displace_type
  _atom_site_B_iso_or_equiv
  _atom_site_type_symbol
  Ag1      1.0000 0.50000  0.50000  0.50000  Biso   1.000  Ag
  Sb1      1.0000 0.73032  0.01377  0.23359  Biso   1.000  Sb
  Sb2      1.0000 0.26968  0.98623  0.76641  Biso   1.000  Sb
  F1       1.0000 0.69160  0.76905  0.13386  Biso   1.000  F 
  F2       1.0000 0.30840  0.23095  0.86614  Biso   1.000  F 
  F3       1.0000 0.11786  0.79644  0.28734  Biso   1.000  F 
  F4       1.0000 0.88214  0.20356  0.71266  Biso   1.000  F 
  F5       1.0000 0.69420  0.77244  0.43196  Biso   1.000  F 
  F6       1.0000 0.30580  0.22756  0.56804  Biso   1.000  F 
  F7       1.0000 0.79128  0.24349  0.06063  Biso   1.000  F 
  F8       1.0000 0.20872  0.75651  0.93937  Biso   1.000  F 
  F9       1.0000 0.34747  0.22982  0.22780  Biso   1.000  F 
  F10      1.0000 0.65253  0.77018  0.77220  Biso   1.000  F 
  F11      1.0000 0.77323  0.23067  0.37110  Biso   1.000  F 
  F12      1.0000 0.22677  0.76933  0.62890  Biso   1.000  F 
