data_image0
_cell_length_a       7.2882
_cell_length_b       7.92821
_cell_length_c       10.6621
_cell_angle_alpha    90
_cell_angle_beta     90
_cell_angle_gamma    90

_symmetry_space_group_name_H-M    "P 1"
_symmetry_int_tables_number       1

loop_
  _symmetry_equiv_pos_as_xyz
  'x, y, z'

loop_
  _atom_site_label
  _atom_site_occupancy
  _atom_site_fract_x
  _atom_site_fract_y
  _atom_site_fract_z
  _atom_site_thermal_displace_type
  _atom_site_B_iso_or_equiv
  _atom_site_type_symbol
  Ag1      1.0000 0.25000  0.14596  0.75353  Biso   1.000  Ag
  Ag2      1.0000 0.25000  0.64596  0.74647  Biso   1.000  Ag
  Ag3      1.0000 0.75000  0.35404  0.25353  Biso   1.000  Ag
  Ag4      1.0000 0.75000  0.85404  0.24647  Biso   1.000  Ag
  Ir1      1.0000 0.25000  0.30371  0.44154  Biso   1.000  Ir
  Ir2      1.0000 0.75000  0.69629  0.55846  Biso   1.000  Ir
  Ir3      1.0000 0.25000  0.80371  0.05846  Biso   1.000  Ir
  Ir4      1.0000 0.75000  0.19629  0.94154  Biso   1.000  Ir
  F1       1.0000 0.25000  0.39729  0.80115  Biso   1.000  F 
  F2       1.0000 0.25000  0.89729  0.69885  Biso   1.000  F 
  F3       1.0000 0.75000  0.10271  0.30115  Biso   1.000  F 
  F4       1.0000 0.75000  0.60271  0.19885  Biso   1.000  F 
  F5       1.0000 0.25000  0.52143  0.51430  Biso   1.000  F 
  F6       1.0000 0.25000  0.02143  0.98570  Biso   1.000  F 
  F7       1.0000 0.75000  0.97857  0.01430  Biso   1.000  F 
  F8       1.0000 0.75000  0.47857  0.48570  Biso   1.000  F 
  F9       1.0000 0.25000  0.08961  0.36966  Biso   1.000  F 
  F10      1.0000 0.25000  0.58961  0.13034  Biso   1.000  F 
  F11      1.0000 0.75000  0.41039  0.86966  Biso   1.000  F 
  F12      1.0000 0.75000  0.91039  0.63034  Biso   1.000  F 
  F13      1.0000 0.42903  0.23302  0.56238  Biso   1.000  F 
  F14      1.0000 0.42903  0.73302  0.93762  Biso   1.000  F 
  F15      1.0000 0.07097  0.23302  0.56238  Biso   1.000  F 
  F16      1.0000 0.92903  0.26698  0.06238  Biso   1.000  F 
  F17      1.0000 0.57097  0.76698  0.43762  Biso   1.000  F 
  F18      1.0000 0.57097  0.26698  0.06238  Biso   1.000  F 
  F19      1.0000 0.92903  0.76698  0.43762  Biso   1.000  F 
  F20      1.0000 0.07097  0.73302  0.93762  Biso   1.000  F 
  F21      1.0000 0.06879  0.37922  0.32305  Biso   1.000  F 
  F22      1.0000 0.06879  0.87922  0.17695  Biso   1.000  F 
  F23      1.0000 0.43121  0.37922  0.32305  Biso   1.000  F 
  F24      1.0000 0.56879  0.12078  0.82305  Biso   1.000  F 
  F25      1.0000 0.93121  0.62078  0.67695  Biso   1.000  F 
  F26      1.0000 0.93121  0.12078  0.82305  Biso   1.000  F 
  F27      1.0000 0.56879  0.62078  0.67695  Biso   1.000  F 
  F28      1.0000 0.43121  0.87922  0.17695  Biso   1.000  F 
