data_image0
_cell_length_a       5.27485
_cell_length_b       5.378
_cell_length_c       5.7125
_cell_angle_alpha    115.498
_cell_angle_beta     89.3065
_cell_angle_gamma    118.361

_symmetry_space_group_name_H-M    "P 1"
_symmetry_int_tables_number       1

loop_
  _symmetry_equiv_pos_as_xyz
  'x, y, z'

loop_
  _atom_site_label
  _atom_site_occupancy
  _atom_site_fract_x
  _atom_site_fract_y
  _atom_site_fract_z
  _atom_site_thermal_displace_type
  _atom_site_B_iso_or_equiv
  _atom_site_type_symbol
  Ag1      1.0000 0.00000  0.00000  0.00000  Biso   1.000  Ag
  Sn1      1.0000 0.50000  1.00000  0.50000  Biso   1.000  Sn
  F1       1.0000 0.25242  0.84828  0.73967  Biso   1.000  F 
  F2       1.0000 0.74758  0.15172  0.26033  Biso   1.000  F 
  F3       1.0000 0.87402  0.13389  0.73917  Biso   1.000  F 
  F4       1.0000 0.12598  0.86611  0.26083  Biso   1.000  F 
  F5       1.0000 0.56947  0.43360  0.71919  Biso   1.000  F 
  F6       1.0000 0.43053  0.56640  0.28081  Biso   1.000  F 
