data_image0
_cell_length_a       6.6601
_cell_length_b       6.6601
_cell_length_c       6.6601
_cell_angle_alpha    129.854
_cell_angle_beta     129.854
_cell_angle_gamma    73.6396

_symmetry_space_group_name_H-M    "P 1"
_symmetry_int_tables_number       1

loop_
  _symmetry_equiv_pos_as_xyz
  'x, y, z'

loop_
  _atom_site_label
  _atom_site_occupancy
  _atom_site_fract_x
  _atom_site_fract_y
  _atom_site_fract_z
  _atom_site_thermal_displace_type
  _atom_site_B_iso_or_equiv
  _atom_site_type_symbol
  Na1      1.0000 0.25000  0.25000  0.00000  Biso   1.000  Na
  Na2      1.0000 0.75000  0.75000  0.00000  Biso   1.000  Na
  Ag1      1.0000 0.50000  0.00000  0.50000  Biso   1.000  Ag
  Ag2      1.0000 0.00000  0.50000  0.50000  Biso   1.000  Ag
  F1       1.0000 0.80285  0.30285  0.85277  Biso   1.000  F 
  F2       1.0000 0.54991  0.04991  0.85277  Biso   1.000  F 
  F3       1.0000 0.19715  0.69715  0.14723  Biso   1.000  F 
  F4       1.0000 0.04991  0.19715  0.50000  Biso   1.000  F 
  F5       1.0000 0.69715  0.54991  0.50000  Biso   1.000  F 
  F6       1.0000 0.45009  0.95009  0.14723  Biso   1.000  F 
  F7       1.0000 0.95009  0.80285  0.50000  Biso   1.000  F 
  F8       1.0000 0.30285  0.45009  0.50000  Biso   1.000  F 
