data_image0
_cell_length_a       10.4683
_cell_length_b       3.81409
_cell_length_c       6.58939
_cell_angle_alpha    87.7984
_cell_angle_beta     90
_cell_angle_gamma    90

_symmetry_space_group_name_H-M    "P 1"
_symmetry_int_tables_number       1

loop_
  _symmetry_equiv_pos_as_xyz
  'x, y, z'

loop_
  _atom_site_label
  _atom_site_occupancy
  _atom_site_fract_x
  _atom_site_fract_y
  _atom_site_fract_z
  _atom_site_thermal_displace_type
  _atom_site_B_iso_or_equiv
  _atom_site_type_symbol
  K1       1.0000 0.18172  0.47885  0.41614  Biso   1.000  K 
  K2       1.0000 0.31828  0.47885  0.91614  Biso   1.000  K 
  K3       1.0000 0.81828  0.52115  0.58386  Biso   1.000  K 
  K4       1.0000 0.68172  0.52115  0.08386  Biso   1.000  K 
  Ag1      1.0000 0.00000  0.00000  0.00000  Biso   1.000  Ag
  Ag2      1.0000 0.50000  0.00000  0.50000  Biso   1.000  Ag
  F1       1.0000 0.94614  0.60887  0.22470  Biso   1.000  F 
  F2       1.0000 0.55386  0.60887  0.72470  Biso   1.000  F 
  F3       1.0000 0.05386  0.39113  0.77530  Biso   1.000  F 
  F4       1.0000 0.44614  0.39113  0.27530  Biso   1.000  F 
  F5       1.0000 0.18656  0.98509  0.12425  Biso   1.000  F 
  F6       1.0000 0.31344  0.98509  0.62425  Biso   1.000  F 
  F7       1.0000 0.81344  0.01491  0.87575  Biso   1.000  F 
  F8       1.0000 0.68656  0.01491  0.37575  Biso   1.000  F 
