data_image0
_cell_length_a       13.5434
_cell_length_b       6.75578
_cell_length_c       6.74154
_cell_angle_alpha    60.0697
_cell_angle_beta     90
_cell_angle_gamma    90

_symmetry_space_group_name_H-M    "P 1"
_symmetry_int_tables_number       1

loop_
  _symmetry_equiv_pos_as_xyz
  'x, y, z'

loop_
  _atom_site_label
  _atom_site_occupancy
  _atom_site_fract_x
  _atom_site_fract_y
  _atom_site_fract_z
  _atom_site_thermal_displace_type
  _atom_site_B_iso_or_equiv
  _atom_site_type_symbol
  Ag1      1.0000 0.19163  1.00000  0.33319  Biso   1.000  Ag
  Ag2      1.0000 0.80837  1.00000  0.66681  Biso   1.000  Ag
  Ag3      1.0000 0.69163  1.00000  0.16681  Biso   1.000  Ag
  Ag4      1.0000 0.30837  0.00000  0.83319  Biso   1.000  Ag
  Fe1      1.0000 0.06434  0.67639  0.98378  Biso   1.000  Fe
  Fe2      1.0000 0.43566  0.67639  0.48378  Biso   1.000  Fe
  Fe3      1.0000 0.93566  0.32361  0.01622  Biso   1.000  Fe
  Fe4      1.0000 0.56434  0.32361  0.51622  Biso   1.000  Fe
  Fe5      1.0000 0.93566  0.67639  0.33983  Biso   1.000  Fe
  Fe6      1.0000 0.56434  0.67639  0.83983  Biso   1.000  Fe
  Fe7      1.0000 0.06434  0.32361  0.66017  Biso   1.000  Fe
  Fe8      1.0000 0.43566  0.32361  0.16017  Biso   1.000  Fe
  S1       1.0000 0.36476  0.00000  0.18879  Biso   1.000  S 
  S2       1.0000 0.63524  0.00000  0.81121  Biso   1.000  S 
  S3       1.0000 0.86476  0.00000  0.31121  Biso   1.000  S 
  S4       1.0000 0.13524  1.00000  0.68879  Biso   1.000  S 
  S5       1.0000 0.10852  0.34562  0.98197  Biso   1.000  S 
  S6       1.0000 0.89148  0.34562  0.67241  Biso   1.000  S 
  S7       1.0000 0.60852  0.34562  0.17241  Biso   1.000  S 
  S8       1.0000 0.39148  0.34562  0.48197  Biso   1.000  S 
  S9       1.0000 0.89148  0.65438  0.01803  Biso   1.000  S 
  S10      1.0000 0.10852  0.65438  0.32759  Biso   1.000  S 
  S11      1.0000 0.39148  0.65438  0.82759  Biso   1.000  S 
  S12      1.0000 0.60852  0.65438  0.51803  Biso   1.000  S 
