data_image0
_cell_length_a       6.8356
_cell_length_b       7.82897
_cell_length_c       8.29893
_cell_angle_alpha    64.5092
_cell_angle_beta     90
_cell_angle_gamma    90

_symmetry_space_group_name_H-M    "P 1"
_symmetry_int_tables_number       1

loop_
  _symmetry_equiv_pos_as_xyz
  'x, y, z'

loop_
  _atom_site_label
  _atom_site_occupancy
  _atom_site_fract_x
  _atom_site_fract_y
  _atom_site_fract_z
  _atom_site_thermal_displace_type
  _atom_site_B_iso_or_equiv
  _atom_site_type_symbol
  Ag1      1.0000 0.00000  0.00744  0.96037  Biso   1.000  Ag
  Ag2      1.0000 0.50000  0.99256  0.03963  Biso   1.000  Ag
  Mn1      1.0000 0.00000  0.35624  0.37842  Biso   1.000  Mn
  Mn2      1.0000 0.50000  0.64376  0.62158  Biso   1.000  Mn
  F1       1.0000 0.21983  0.52570  0.23143  Biso   1.000  F 
  F2       1.0000 0.71983  0.47430  0.76857  Biso   1.000  F 
  F3       1.0000 0.28017  0.47430  0.76857  Biso   1.000  F 
  F4       1.0000 0.78017  0.52570  0.23143  Biso   1.000  F 
  F5       1.0000 0.27942  0.15693  0.53747  Biso   1.000  F 
  F6       1.0000 0.77942  0.84307  0.46253  Biso   1.000  F 
  F7       1.0000 0.22058  0.84307  0.46253  Biso   1.000  F 
  F8       1.0000 0.72058  0.15693  0.53747  Biso   1.000  F 
  O1       1.0000 0.00000  0.13862  0.27377  Biso   1.000  O 
  O2       1.0000 0.50000  0.86138  0.72623  Biso   1.000  O 
  O3       1.0000 0.00000  0.37597  0.62291  Biso   1.000  O 
  O4       1.0000 0.50000  0.62403  0.37709  Biso   1.000  O 
  O5       1.0000 0.26299  0.85310  0.96377  Biso   1.000  O 
  O6       1.0000 0.76299  0.14690  0.03623  Biso   1.000  O 
  O7       1.0000 0.23701  0.14690  0.03623  Biso   1.000  O 
  O8       1.0000 0.73701  0.85310  0.96377  Biso   1.000  O 
  H1       1.0000 0.13875  0.95357  0.40135  Biso   1.000  H 
  H2       1.0000 0.63875  0.04643  0.59865  Biso   1.000  H 
  H3       1.0000 0.36125  0.04643  0.59865  Biso   1.000  H 
  H4       1.0000 0.86125  0.95357  0.40135  Biso   1.000  H 
  H5       1.0000 0.11649  0.42232  0.66700  Biso   1.000  H 
  H6       1.0000 0.61649  0.57768  0.33299  Biso   1.000  H 
  H7       1.0000 0.38351  0.57768  0.33299  Biso   1.000  H 
  H8       1.0000 0.88351  0.42232  0.66700  Biso   1.000  H 
  H9       1.0000 0.24346  0.71933  0.05838  Biso   1.000  H 
  H10      1.0000 0.74346  0.28067  0.94162  Biso   1.000  H 
  H11      1.0000 0.25654  0.28067  0.94162  Biso   1.000  H 
  H12      1.0000 0.75654  0.71933  0.05838  Biso   1.000  H 
  H13      1.0000 0.38296  0.84582  0.81728  Biso   1.000  H 
  H14      1.0000 0.88296  0.15418  0.18272  Biso   1.000  H 
  H15      1.0000 0.11704  0.15418  0.18272  Biso   1.000  H 
  H16      1.0000 0.61704  0.84582  0.81728  Biso   1.000  H 
