data_image0
_cell_length_a       5.92682
_cell_length_b       5.92682
_cell_length_c       7.92259
_cell_angle_alpha    69.5222
_cell_angle_beta     69.5222
_cell_angle_gamma    73.2429

_symmetry_space_group_name_H-M    "P 1"
_symmetry_int_tables_number       1

loop_
  _symmetry_equiv_pos_as_xyz
  'x, y, z'

loop_
  _atom_site_label
  _atom_site_occupancy
  _atom_site_fract_x
  _atom_site_fract_y
  _atom_site_fract_z
  _atom_site_thermal_displace_type
  _atom_site_B_iso_or_equiv
  _atom_site_type_symbol
  Ag1      1.0000 0.00000  0.00000  0.00000  Biso   1.000  Ag
  Pd1      1.0000 1.00000  1.00000  0.50000  Biso   1.000  Pd
  Zr1      1.0000 0.49281  0.49281  0.23711  Biso   1.000  Zr
  Zr2      1.0000 0.50719  0.50719  0.76289  Biso   1.000  Zr
  F1       1.0000 0.50000  0.50000  0.50000  Biso   1.000  F 
  F2       1.0000 0.33704  0.66296  0.00000  Biso   1.000  F 
  F3       1.0000 0.66296  0.33704  0.00000  Biso   1.000  F 
  F4       1.0000 0.74418  0.74418  0.65375  Biso   1.000  F 
  F5       1.0000 0.25582  0.25582  0.34625  Biso   1.000  F 
  F6       1.0000 0.72229  0.72229  0.11256  Biso   1.000  F 
  F7       1.0000 0.27771  0.27771  0.88744  Biso   1.000  F 
  F8       1.0000 0.19902  0.76686  0.30807  Biso   1.000  F 
  F9       1.0000 0.76686  0.19902  0.30807  Biso   1.000  F 
  F10      1.0000 0.80098  0.23314  0.69193  Biso   1.000  F 
  F11      1.0000 0.23314  0.80098  0.69193  Biso   1.000  F 
