data_image0
_cell_length_a       6.48273
_cell_length_b       6.48273
_cell_length_c       5.31372
_cell_angle_alpha    82.1889
_cell_angle_beta     82.1889
_cell_angle_gamma    27.2612

_symmetry_space_group_name_H-M    "P 1"
_symmetry_int_tables_number       1

loop_
  _symmetry_equiv_pos_as_xyz
  'x, y, z'

loop_
  _atom_site_label
  _atom_site_occupancy
  _atom_site_fract_x
  _atom_site_fract_y
  _atom_site_fract_z
  _atom_site_thermal_displace_type
  _atom_site_B_iso_or_equiv
  _atom_site_type_symbol
  Ag1      1.0000 0.75000  0.75000  0.25000  Biso   1.000  Ag
  Ag2      1.0000 0.25000  0.25000  0.75000  Biso   1.000  Ag
  Fe1      1.0000 0.50000  0.50000  0.00000  Biso   1.000  Fe
  Fe2      1.0000 0.00000  0.00000  0.50000  Biso   1.000  Fe
  O1       1.0000 0.08175  0.08175  0.80594  Biso   1.000  O 
  O2       1.0000 0.58175  0.58175  0.30594  Biso   1.000  O 
  O3       1.0000 0.91825  0.91825  0.19406  Biso   1.000  O 
  O4       1.0000 0.41825  0.41825  0.69406  Biso   1.000  O 
