data_image0
_cell_length_a       5.03329
_cell_length_b       5.14138
_cell_length_c       5.53729
_cell_angle_alpha    116.409
_cell_angle_beta     89.1363
_cell_angle_gamma    118.513

_symmetry_space_group_name_H-M    "P 1"
_symmetry_int_tables_number       1

loop_
  _symmetry_equiv_pos_as_xyz
  'x, y, z'

loop_
  _atom_site_label
  _atom_site_occupancy
  _atom_site_fract_x
  _atom_site_fract_y
  _atom_site_fract_z
  _atom_site_thermal_displace_type
  _atom_site_B_iso_or_equiv
  _atom_site_type_symbol
  Ag1      1.0000 0.00000  0.00000  0.00000  Biso   1.000  Ag
  Ti1      1.0000 0.50000  1.00000  0.50000  Biso   1.000  Ti
  F1       1.0000 0.25877  0.84211  0.73085  Biso   1.000  F 
  F2       1.0000 0.74123  0.15789  0.26915  Biso   1.000  F 
  F3       1.0000 0.87304  0.15330  0.74055  Biso   1.000  F 
  F4       1.0000 0.12696  0.84670  0.25945  Biso   1.000  F 
  F5       1.0000 0.54778  0.42419  0.71408  Biso   1.000  F 
  F6       1.0000 0.45222  0.57581  0.28592  Biso   1.000  F 
