data_image0
_cell_length_a       5.77379
_cell_length_b       5.9191
_cell_length_c       7.92773
_cell_angle_alpha    111.426
_cell_angle_beta     96.1249
_cell_angle_gamma    106.07

_symmetry_space_group_name_H-M    "P 1"
_symmetry_int_tables_number       1

loop_
  _symmetry_equiv_pos_as_xyz
  'x, y, z'

loop_
  _atom_site_label
  _atom_site_occupancy
  _atom_site_fract_x
  _atom_site_fract_y
  _atom_site_fract_z
  _atom_site_thermal_displace_type
  _atom_site_B_iso_or_equiv
  _atom_site_type_symbol
  Na1      1.0000 0.00000  0.00000  0.00000  Biso   1.000  Na
  Ag1      1.0000 0.00000  0.50000  0.50000  Biso   1.000  Ag
  Zr1      1.0000 0.49530  0.26263  0.77063  Biso   1.000  Zr
  Zr2      1.0000 0.50470  0.73737  0.22937  Biso   1.000  Zr
  F1       1.0000 0.50000  0.00000  0.50000  Biso   1.000  F 
  F2       1.0000 0.26769  0.39899  0.65278  Biso   1.000  F 
  F3       1.0000 0.73231  0.60101  0.34722  Biso   1.000  F 
  F4       1.0000 0.78078  0.48396  0.68965  Biso   1.000  F 
  F5       1.0000 0.21922  0.51604  0.31035  Biso   1.000  F 
  F6       1.0000 0.79544  0.05260  0.27818  Biso   1.000  F 
  F7       1.0000 0.20456  0.94740  0.72182  Biso   1.000  F 
  F8       1.0000 0.73764  0.15546  0.88876  Biso   1.000  F 
  F9       1.0000 0.26236  0.84454  0.11124  Biso   1.000  F 
  F10      1.0000 0.66370  0.65476  0.98710  Biso   1.000  F 
  F11      1.0000 0.33630  0.34524  0.01290  Biso   1.000  F 
