data_image0
_cell_length_a       7.61303
_cell_length_b       7.61303
_cell_length_c       7.61303
_cell_angle_alpha    131.209
_cell_angle_beta     131.209
_cell_angle_gamma    71.4807

_symmetry_space_group_name_H-M    "P 1"
_symmetry_int_tables_number       1

loop_
  _symmetry_equiv_pos_as_xyz
  'x, y, z'

loop_
  _atom_site_label
  _atom_site_occupancy
  _atom_site_fract_x
  _atom_site_fract_y
  _atom_site_fract_z
  _atom_site_thermal_displace_type
  _atom_site_B_iso_or_equiv
  _atom_site_type_symbol
  Ag1      1.0000 0.00000  0.00000  0.00000  Biso   1.000  Ag
  Fe1      1.0000 0.25000  0.75000  0.50000  Biso   1.000  Fe
  Fe2      1.0000 0.75000  0.25000  0.50000  Biso   1.000  Fe
  Ga1      1.0000 0.50000  0.50000  0.00000  Biso   1.000  Ga
  Te1      1.0000 0.86740  0.86740  0.48194  Biso   1.000  Te
  Te2      1.0000 0.38546  0.38546  0.51806  Biso   1.000  Te
  Te3      1.0000 0.61454  0.13260  0.00000  Biso   1.000  Te
  Te4      1.0000 0.13260  0.61454  0.00000  Biso   1.000  Te
