data_image0
_cell_length_a       4.35535
_cell_length_b       4.35535
_cell_length_c       9.70697
_cell_angle_alpha    90
_cell_angle_beta     90
_cell_angle_gamma    90

_symmetry_space_group_name_H-M    "P 1"
_symmetry_int_tables_number       1

loop_
  _symmetry_equiv_pos_as_xyz
  'x, y, z'

loop_
  _atom_site_label
  _atom_site_occupancy
  _atom_site_fract_x
  _atom_site_fract_y
  _atom_site_fract_z
  _atom_site_thermal_displace_type
  _atom_site_B_iso_or_equiv
  _atom_site_type_symbol
  Sr1      1.0000 0.00000  0.50000  0.86305  Biso   1.000  Sr
  Sr2      1.0000 0.50000  0.00000  0.13695  Biso   1.000  Sr
  F1       1.0000 0.50000  0.50000  0.00000  Biso   1.000  F 
  F2       1.0000 0.00000  0.00000  0.00000  Biso   1.000  F 
  Te1      1.0000 0.00000  0.50000  0.30266  Biso   1.000  Te
  Te2      1.0000 0.50000  0.00000  0.69734  Biso   1.000  Te
  Ag1      1.0000 0.50000  0.50000  0.50000  Biso   1.000  Ag
  Ag2      1.0000 0.00000  0.00000  0.50000  Biso   1.000  Ag
