data_image0
_cell_length_a       6.47139
_cell_length_b       6.47139
_cell_length_c       5.31384
_cell_angle_alpha    82.2283
_cell_angle_beta     82.2283
_cell_angle_gamma    27.2767

_symmetry_space_group_name_H-M    "P 1"
_symmetry_int_tables_number       1

loop_
  _symmetry_equiv_pos_as_xyz
  'x, y, z'

loop_
  _atom_site_label
  _atom_site_occupancy
  _atom_site_fract_x
  _atom_site_fract_y
  _atom_site_fract_z
  _atom_site_thermal_displace_type
  _atom_site_B_iso_or_equiv
  _atom_site_type_symbol
  Ag1      1.0000 0.75000  0.75000  0.25000  Biso   1.000  Ag
  Ag2      1.0000 0.25000  0.25000  0.75000  Biso   1.000  Ag
  Fe1      1.0000 0.00000  0.00000  0.50000  Biso   1.000  Fe
  Fe2      1.0000 0.50000  0.50000  0.00000  Biso   1.000  Fe
  O1       1.0000 0.58191  0.58191  0.30550  Biso   1.000  O 
  O2       1.0000 0.08191  0.08191  0.80550  Biso   1.000  O 
  O3       1.0000 0.41809  0.41809  0.69450  Biso   1.000  O 
  O4       1.0000 0.91809  0.91809  0.19450  Biso   1.000  O 
