data_image0
_cell_length_a       8.7906
_cell_length_b       8.7906
_cell_length_c       8.7906
_cell_angle_alpha    120.736
_cell_angle_beta     120.736
_cell_angle_gamma    88.7295

_symmetry_space_group_name_H-M    "P 1"
_symmetry_int_tables_number       1

loop_
  _symmetry_equiv_pos_as_xyz
  'x, y, z'

loop_
  _atom_site_label
  _atom_site_occupancy
  _atom_site_fract_x
  _atom_site_fract_y
  _atom_site_fract_z
  _atom_site_thermal_displace_type
  _atom_site_B_iso_or_equiv
  _atom_site_type_symbol
  Xe1      1.0000 0.75115  0.25115  0.00229  Biso   1.000  Xe
  Xe2      1.0000 0.24885  0.74885  0.99771  Biso   1.000  Xe
  Xe3      1.0000 0.74885  0.75115  0.50000  Biso   1.000  Xe
  Xe4      1.0000 0.25115  0.24885  0.50000  Biso   1.000  Xe
  Ag1      1.0000 0.75000  0.75000  0.00000  Biso   1.000  Ag
  Ag2      1.0000 0.25000  0.25000  0.00000  Biso   1.000  Ag
  P1       1.0000 0.25000  0.75000  0.50000  Biso   1.000  P 
  P2       1.0000 0.75000  0.25000  0.50000  Biso   1.000  P 
  F1       1.0000 0.11961  0.61961  0.50000  Biso   1.000  F 
  F2       1.0000 0.61961  0.11961  0.50000  Biso   1.000  F 
  F3       1.0000 0.38039  0.88039  0.50000  Biso   1.000  F 
  F4       1.0000 0.88039  0.38039  0.50000  Biso   1.000  F 
  F5       1.0000 0.32804  0.92205  0.75010  Biso   1.000  F 
  F6       1.0000 0.17195  0.57794  0.24990  Biso   1.000  F 
  F7       1.0000 0.67195  0.42205  0.59401  Biso   1.000  F 
  F8       1.0000 0.82804  0.07794  0.40599  Biso   1.000  F 
  F9       1.0000 0.07795  0.82805  0.40599  Biso   1.000  F 
  F10      1.0000 0.42206  0.67196  0.59401  Biso   1.000  F 
  F11      1.0000 0.57795  0.17196  0.24990  Biso   1.000  F 
  F12      1.0000 0.92206  0.32805  0.75010  Biso   1.000  F 
  F13      1.0000 0.00773  0.77698  0.99743  Biso   1.000  F 
  F14      1.0000 0.77955  0.01030  0.00257  Biso   1.000  F 
  F15      1.0000 0.27955  0.27698  0.76925  Biso   1.000  F 
  F16      1.0000 0.50773  0.51030  0.23075  Biso   1.000  F 
  F17      1.0000 0.22302  0.22045  0.23075  Biso   1.000  F 
  F18      1.0000 0.98970  0.99227  0.76925  Biso   1.000  F 
  F19      1.0000 0.72302  0.49227  0.00257  Biso   1.000  F 
  F20      1.0000 0.48970  0.72045  0.99743  Biso   1.000  F 
