data_image0
_cell_length_a       5.32104
_cell_length_b       7.7909
_cell_length_c       13.9726
_cell_angle_alpha    90
_cell_angle_beta     90
_cell_angle_gamma    90

_symmetry_space_group_name_H-M    "P 1"
_symmetry_int_tables_number       1

loop_
  _symmetry_equiv_pos_as_xyz
  'x, y, z'

loop_
  _atom_site_label
  _atom_site_occupancy
  _atom_site_fract_x
  _atom_site_fract_y
  _atom_site_fract_z
  _atom_site_thermal_displace_type
  _atom_site_B_iso_or_equiv
  _atom_site_type_symbol
  Ag1      1.0000 0.38384  0.67414  0.88078  Biso   1.000  Ag
  Ag2      1.0000 0.61616  0.17414  0.11922  Biso   1.000  Ag
  Ag3      1.0000 0.88384  0.17414  0.61922  Biso   1.000  Ag
  Ag4      1.0000 0.11616  0.67414  0.38078  Biso   1.000  Ag
  Fe1      1.0000 0.19684  0.69579  0.62651  Biso   1.000  Fe
  Fe2      1.0000 0.80316  0.19579  0.37349  Biso   1.000  Fe
  Fe3      1.0000 0.69684  0.19579  0.87349  Biso   1.000  Fe
  Fe4      1.0000 0.30316  0.69579  0.12651  Biso   1.000  Fe
  Se1      1.0000 0.18512  0.01169  0.97114  Biso   1.000  Se
  Se2      1.0000 0.81488  0.51169  0.02886  Biso   1.000  Se
  Se3      1.0000 0.68512  0.51169  0.52886  Biso   1.000  Se
  Se4      1.0000 0.31488  0.01169  0.47114  Biso   1.000  Se
  Se5      1.0000 0.21214  0.37653  0.77947  Biso   1.000  Se
  Se6      1.0000 0.78786  0.87653  0.22053  Biso   1.000  Se
  Se7      1.0000 0.71214  0.87653  0.72053  Biso   1.000  Se
  Se8      1.0000 0.28786  0.37653  0.27947  Biso   1.000  Se
  O1       1.0000 0.25466  0.94750  0.08678  Biso   1.000  O 
  O2       1.0000 0.74534  0.44750  0.91322  Biso   1.000  O 
  O3       1.0000 0.75466  0.44750  0.41322  Biso   1.000  O 
  O4       1.0000 0.24534  0.94750  0.58678  Biso   1.000  O 
  O5       1.0000 0.90777  0.12558  0.98934  Biso   1.000  O 
  O6       1.0000 0.09223  0.62558  0.01066  Biso   1.000  O 
  O7       1.0000 0.40777  0.62558  0.51066  Biso   1.000  O 
  O8       1.0000 0.59223  0.12558  0.48934  Biso   1.000  O 
  O9       1.0000 0.39818  0.18195  0.96338  Biso   1.000  O 
  O10      1.0000 0.60182  0.68195  0.03662  Biso   1.000  O 
  O11      1.0000 0.89818  0.68195  0.53662  Biso   1.000  O 
  O12      1.0000 0.10182  0.18195  0.46338  Biso   1.000  O 
  O13      1.0000 0.49112  0.26950  0.76170  Biso   1.000  O 
  O14      1.0000 0.50888  0.76950  0.23830  Biso   1.000  O 
  O15      1.0000 0.99112  0.76950  0.73830  Biso   1.000  O 
  O16      1.0000 0.00888  0.26950  0.26170  Biso   1.000  O 
  O17      1.0000 0.99830  0.20427  0.78375  Biso   1.000  O 
  O18      1.0000 0.00170  0.70427  0.21625  Biso   1.000  O 
  O19      1.0000 0.49830  0.70427  0.71625  Biso   1.000  O 
  O20      1.0000 0.50170  0.20427  0.28375  Biso   1.000  O 
  O21      1.0000 0.15176  0.44346  0.66382  Biso   1.000  O 
  O22      1.0000 0.84824  0.94346  0.33618  Biso   1.000  O 
  O23      1.0000 0.65176  0.94346  0.83618  Biso   1.000  O 
  O24      1.0000 0.34824  0.44346  0.16382  Biso   1.000  O 
