data_image0
_cell_length_a       5.19695
_cell_length_b       5.26608
_cell_length_c       10.1627
_cell_angle_alpha    89.4403
_cell_angle_beta     103.525
_cell_angle_gamma    121.006

_symmetry_space_group_name_H-M    "P 1"
_symmetry_int_tables_number       1

loop_
  _symmetry_equiv_pos_as_xyz
  'x, y, z'

loop_
  _atom_site_label
  _atom_site_occupancy
  _atom_site_fract_x
  _atom_site_fract_y
  _atom_site_fract_z
  _atom_site_thermal_displace_type
  _atom_site_B_iso_or_equiv
  _atom_site_type_symbol
  Ag1      1.0000 0.00000  0.00000  0.00000  Biso   1.000  Ag
  Ag2      1.0000 0.00000  0.50000  0.50000  Biso   1.000  Ag
  Pd1      1.0000 0.48533  0.70215  0.25028  Biso   1.000  Pd
  Pd2      1.0000 0.51467  0.29785  0.74972  Biso   1.000  Pd
  F1       1.0000 0.11684  0.67043  0.13676  Biso   1.000  F 
  F2       1.0000 0.88316  0.32957  0.86324  Biso   1.000  F 
  F3       1.0000 0.71808  0.97542  0.13260  Biso   1.000  F 
  F4       1.0000 0.28192  0.02458  0.86740  Biso   1.000  F 
  F5       1.0000 0.24987  0.43622  0.36815  Biso   1.000  F 
  F6       1.0000 0.75013  0.56378  0.63185  Biso   1.000  F 
  F7       1.0000 0.87589  0.75050  0.36371  Biso   1.000  F 
  F8       1.0000 0.12411  0.24950  0.63629  Biso   1.000  F 
  F9       1.0000 0.41261  0.36152  0.13482  Biso   1.000  F 
  F10      1.0000 0.58739  0.63848  0.86518  Biso   1.000  F 
  F11      1.0000 0.56679  0.03501  0.36592  Biso   1.000  F 
  F12      1.0000 0.43321  0.96499  0.63408  Biso   1.000  F 
