data_image0
_cell_length_a       7.02423
_cell_length_b       7.02423
_cell_length_c       7.02423
_cell_angle_alpha    128.998
_cell_angle_beta     128.998
_cell_angle_gamma    75.0131

_symmetry_space_group_name_H-M    "P 1"
_symmetry_int_tables_number       1

loop_
  _symmetry_equiv_pos_as_xyz
  'x, y, z'

loop_
  _atom_site_label
  _atom_site_occupancy
  _atom_site_fract_x
  _atom_site_fract_y
  _atom_site_fract_z
  _atom_site_thermal_displace_type
  _atom_site_B_iso_or_equiv
  _atom_site_type_symbol
  Ag1      1.0000 0.75000  0.25000  0.50000  Biso   1.000  Ag
  Ag2      1.0000 0.00000  0.00000  0.00000  Biso   1.000  Ag
  Ga1      1.0000 0.25000  0.75000  0.50000  Biso   1.000  Ga
  Ga2      1.0000 0.50000  0.50000  0.00000  Biso   1.000  Ga
  Se1      1.0000 0.59712  0.12500  0.97212  Biso   1.000  Se
  Se2      1.0000 0.15288  0.62500  0.02788  Biso   1.000  Se
  Se3      1.0000 0.37500  0.40288  0.52788  Biso   1.000  Se
  Se4      1.0000 0.87500  0.84712  0.47212  Biso   1.000  Se
