data_image0
_cell_length_a       5.81116
_cell_length_b       5.81116
_cell_length_c       6.67098
_cell_angle_alpha    64.2776
_cell_angle_beta     64.2776
_cell_angle_gamma    89.889

_symmetry_space_group_name_H-M    "P 1"
_symmetry_int_tables_number       1

loop_
  _symmetry_equiv_pos_as_xyz
  'x, y, z'

loop_
  _atom_site_label
  _atom_site_occupancy
  _atom_site_fract_x
  _atom_site_fract_y
  _atom_site_fract_z
  _atom_site_thermal_displace_type
  _atom_site_B_iso_or_equiv
  _atom_site_type_symbol
  Ag1      1.0000 0.87444  0.11587  0.49637  Biso   1.000  Ag
  Ag2      1.0000 0.11587  0.87444  0.99637  Biso   1.000  Ag
  Ga1      1.0000 0.37002  0.61896  0.49205  Biso   1.000  Ga
  Ga2      1.0000 0.61896  0.37002  0.99205  Biso   1.000  Ga
  S1       1.0000 0.27912  0.49578  0.24057  Biso   1.000  S 
  S2       1.0000 0.49578  0.27912  0.74057  Biso   1.000  S 
  S3       1.0000 0.70591  0.99590  0.24602  Biso   1.000  S 
  S4       1.0000 0.99590  0.70591  0.74602  Biso   1.000  S 
