data_image0
_cell_length_a       8.78117
_cell_length_b       8.78117
_cell_length_c       8.78117
_cell_angle_alpha    55.7568
_cell_angle_beta     55.7568
_cell_angle_gamma    55.7568

_symmetry_space_group_name_H-M    "P 1"
_symmetry_int_tables_number       1

loop_
  _symmetry_equiv_pos_as_xyz
  'x, y, z'

loop_
  _atom_site_label
  _atom_site_occupancy
  _atom_site_fract_x
  _atom_site_fract_y
  _atom_site_fract_z
  _atom_site_thermal_displace_type
  _atom_site_B_iso_or_equiv
  _atom_site_type_symbol
  Ag1      1.0000 0.00000  0.00000  0.00000  Biso   1.000  Ag
  Ag2      1.0000 0.50000  0.50000  0.50000  Biso   1.000  Ag
  Ge1      1.0000 0.64989  0.64989  0.64989  Biso   1.000  Ge
  Ge2      1.0000 0.35011  0.35011  0.35011  Biso   1.000  Ge
  Ge3      1.0000 0.14553  0.14553  0.14553  Biso   1.000  Ge
  Ge4      1.0000 0.85447  0.85447  0.85447  Biso   1.000  Ge
  P1       1.0000 0.96490  0.24976  0.53637  Biso   1.000  P 
  P2       1.0000 0.24976  0.53637  0.96490  Biso   1.000  P 
  P3       1.0000 0.53637  0.96490  0.24976  Biso   1.000  P 
  P4       1.0000 0.03510  0.75024  0.46363  Biso   1.000  P 
  P5       1.0000 0.75024  0.46363  0.03510  Biso   1.000  P 
  P6       1.0000 0.46363  0.03510  0.75024  Biso   1.000  P 
  O1       1.0000 0.98796  0.20852  0.37486  Biso   1.000  O 
  O2       1.0000 0.20852  0.37486  0.98796  Biso   1.000  O 
  O3       1.0000 0.37486  0.98796  0.20852  Biso   1.000  O 
  O4       1.0000 0.01204  0.79148  0.62514  Biso   1.000  O 
  O5       1.0000 0.79148  0.62514  0.01204  Biso   1.000  O 
  O6       1.0000 0.62514  0.01204  0.79148  Biso   1.000  O 
  O7       1.0000 0.16046  0.22655  0.52168  Biso   1.000  O 
  O8       1.0000 0.22655  0.52168  0.16046  Biso   1.000  O 
  O9       1.0000 0.52168  0.16046  0.22655  Biso   1.000  O 
  O10      1.0000 0.83954  0.77345  0.47832  Biso   1.000  O 
  O11      1.0000 0.77345  0.47832  0.83954  Biso   1.000  O 
  O12      1.0000 0.47832  0.83954  0.77345  Biso   1.000  O 
  O13      1.0000 0.80622  0.46070  0.52158  Biso   1.000  O 
  O14      1.0000 0.46070  0.52158  0.80622  Biso   1.000  O 
  O15      1.0000 0.52158  0.80622  0.46070  Biso   1.000  O 
  O16      1.0000 0.19378  0.53930  0.47842  Biso   1.000  O 
  O17      1.0000 0.53930  0.47842  0.19378  Biso   1.000  O 
  O18      1.0000 0.47842  0.19378  0.53930  Biso   1.000  O 
  O19      1.0000 0.88881  0.09938  0.74079  Biso   1.000  O 
  O20      1.0000 0.09938  0.74079  0.88881  Biso   1.000  O 
  O21      1.0000 0.74079  0.88881  0.09938  Biso   1.000  O 
  O22      1.0000 0.11119  0.90062  0.25921  Biso   1.000  O 
  O23      1.0000 0.90062  0.25921  0.11119  Biso   1.000  O 
  O24      1.0000 0.25921  0.11119  0.90062  Biso   1.000  O 
