data_image0
_cell_length_a       6.43267
_cell_length_b       6.43267
_cell_length_c       13.9527
_cell_angle_alpha    90
_cell_angle_beta     90
_cell_angle_gamma    120

_symmetry_space_group_name_H-M    "P 1"
_symmetry_int_tables_number       1

loop_
  _symmetry_equiv_pos_as_xyz
  'x, y, z'

loop_
  _atom_site_label
  _atom_site_occupancy
  _atom_site_fract_x
  _atom_site_fract_y
  _atom_site_fract_z
  _atom_site_thermal_displace_type
  _atom_site_B_iso_or_equiv
  _atom_site_type_symbol
  Ag1      1.0000 0.66667  0.33333  0.25000  Biso   1.000  Ag
  Ag2      1.0000 0.33333  0.66667  0.75000  Biso   1.000  Ag
  Ga1      1.0000 0.00000  0.00000  0.25000  Biso   1.000  Ga
  Ga2      1.0000 0.00000  0.00000  0.75000  Biso   1.000  Ga
  Se1      1.0000 0.01836  0.31820  0.37423  Biso   1.000  Se
  Se2      1.0000 0.29984  0.98164  0.37423  Biso   1.000  Se
  Se3      1.0000 0.68180  0.70016  0.37423  Biso   1.000  Se
  Se4      1.0000 0.98164  0.29984  0.87423  Biso   1.000  Se
  Se5      1.0000 0.31820  0.01836  0.87423  Biso   1.000  Se
  Se6      1.0000 0.70016  0.68180  0.87423  Biso   1.000  Se
  Se7      1.0000 0.98164  0.68180  0.62577  Biso   1.000  Se
  Se8      1.0000 0.70016  0.01836  0.62577  Biso   1.000  Se
  Se9      1.0000 0.31820  0.29984  0.62577  Biso   1.000  Se
  Se10     1.0000 0.01836  0.70016  0.12577  Biso   1.000  Se
  Se11     1.0000 0.68180  0.98164  0.12577  Biso   1.000  Se
  Se12     1.0000 0.29984  0.31820  0.12577  Biso   1.000  Se
  P1       1.0000 0.33333  0.66667  0.33100  Biso   1.000  P 
  P2       1.0000 0.66667  0.33333  0.83100  Biso   1.000  P 
  P3       1.0000 0.66667  0.33333  0.66900  Biso   1.000  P 
  P4       1.0000 0.33333  0.66667  0.16900  Biso   1.000  P 
