data_image0
_cell_length_a       6.85948
_cell_length_b       6.85948
_cell_length_c       14.7764
_cell_angle_alpha    80.8273
_cell_angle_beta     80.8273
_cell_angle_gamma    96.8093

_symmetry_space_group_name_H-M    "P 1"
_symmetry_int_tables_number       1

loop_
  _symmetry_equiv_pos_as_xyz
  'x, y, z'

loop_
  _atom_site_label
  _atom_site_occupancy
  _atom_site_fract_x
  _atom_site_fract_y
  _atom_site_fract_z
  _atom_site_thermal_displace_type
  _atom_site_B_iso_or_equiv
  _atom_site_type_symbol
  Ge1      1.0000 0.08171  0.23814  0.13926  Biso   1.000  Ge
  Ge2      1.0000 0.76186  0.91829  0.36074  Biso   1.000  Ge
  Ge3      1.0000 0.91829  0.76186  0.86074  Biso   1.000  Ge
  Ge4      1.0000 0.23814  0.08171  0.63926  Biso   1.000  Ge
  Ag1      1.0000 0.58375  0.41625  0.25000  Biso   1.000  Ag
  Ag2      1.0000 0.41625  0.58375  0.75000  Biso   1.000  Ag
  S1       1.0000 0.26434  0.12812  0.02435  Biso   1.000  S 
  S2       1.0000 0.87188  0.73566  0.47565  Biso   1.000  S 
  S3       1.0000 0.73566  0.87188  0.97565  Biso   1.000  S 
  S4       1.0000 0.12812  0.26434  0.52435  Biso   1.000  S 
  S5       1.0000 0.79463  0.32465  0.10649  Biso   1.000  S 
  S6       1.0000 0.67535  0.20537  0.39351  Biso   1.000  S 
  S7       1.0000 0.20537  0.67535  0.89351  Biso   1.000  S 
  S8       1.0000 0.32465  0.79463  0.60649  Biso   1.000  S 
  S9       1.0000 0.25798  0.48892  0.18311  Biso   1.000  S 
  S10      1.0000 0.51108  0.74202  0.31689  Biso   1.000  S 
  S11      1.0000 0.74202  0.51108  0.81689  Biso   1.000  S 
  S12      1.0000 0.48892  0.25798  0.68311  Biso   1.000  S 
  S13      1.0000 0.04514  0.95486  0.25000  Biso   1.000  S 
  S14      1.0000 0.95486  0.04514  0.75000  Biso   1.000  S 
  Na1      1.0000 0.97574  0.26368  0.91845  Biso   1.000  Na
  Na2      1.0000 0.73632  0.02426  0.58155  Biso   1.000  Na
  Na3      1.0000 0.02426  0.73632  0.08155  Biso   1.000  Na
  Na4      1.0000 0.26368  0.97574  0.41845  Biso   1.000  Na
  Na5      1.0000 0.50000  0.50000  0.00000  Biso   1.000  Na
  Na6      1.0000 0.50000  0.50000  0.50000  Biso   1.000  Na
  Na7      1.0000 0.03657  0.48308  0.35925  Biso   1.000  Na
  Na8      1.0000 0.51692  0.96343  0.14075  Biso   1.000  Na
  Na9      1.0000 0.96343  0.51692  0.64075  Biso   1.000  Na
  Na10     1.0000 0.48308  0.03657  0.85925  Biso   1.000  Na
