data_image0
_cell_length_a       5.66108
_cell_length_b       7.24171
_cell_length_c       5.59065
_cell_angle_alpha    90
_cell_angle_beta     90
_cell_angle_gamma    90

_symmetry_space_group_name_H-M    "P 1"
_symmetry_int_tables_number       1

loop_
  _symmetry_equiv_pos_as_xyz
  'x, y, z'

loop_
  _atom_site_label
  _atom_site_occupancy
  _atom_site_fract_x
  _atom_site_fract_y
  _atom_site_fract_z
  _atom_site_thermal_displace_type
  _atom_site_B_iso_or_equiv
  _atom_site_type_symbol
  Ag1      1.0000 0.45042  0.12472  0.49519  Biso   1.000  Ag
  Ag2      1.0000 0.95042  0.37528  0.49519  Biso   1.000  Ag
  Ag3      1.0000 0.04958  0.62472  0.99519  Biso   1.000  Ag
  Ag4      1.0000 0.54958  0.87528  0.99519  Biso   1.000  Ag
  Ga1      1.0000 0.06180  0.12416  0.00100  Biso   1.000  Ga
  Ga2      1.0000 0.56180  0.37584  0.00100  Biso   1.000  Ga
  Ga3      1.0000 0.43820  0.62416  0.50100  Biso   1.000  Ga
  Ga4      1.0000 0.93820  0.87584  0.50100  Biso   1.000  Ga
  O1       1.0000 0.61844  0.83431  0.41719  Biso   1.000  O 
  O2       1.0000 0.11844  0.66569  0.41719  Biso   1.000  O 
  O3       1.0000 0.88156  0.33431  0.91719  Biso   1.000  O 
  O4       1.0000 0.38156  0.16569  0.91719  Biso   1.000  O 
  O5       1.0000 0.54330  0.41326  0.33512  Biso   1.000  O 
  O6       1.0000 0.04330  0.08674  0.33512  Biso   1.000  O 
  O7       1.0000 0.95670  0.91326  0.83512  Biso   1.000  O 
  O8       1.0000 0.45670  0.58674  0.83512  Biso   1.000  O 
