data_image0
_cell_length_a       6.3208
_cell_length_b       6.3208
_cell_length_c       6.3208
_cell_angle_alpha    102.082
_cell_angle_beta     102.082
_cell_angle_gamma    125.547

_symmetry_space_group_name_H-M    "P 1"
_symmetry_int_tables_number       1

loop_
  _symmetry_equiv_pos_as_xyz
  'x, y, z'

loop_
  _atom_site_label
  _atom_site_occupancy
  _atom_site_fract_x
  _atom_site_fract_y
  _atom_site_fract_z
  _atom_site_thermal_displace_type
  _atom_site_B_iso_or_equiv
  _atom_site_type_symbol
  Mo1      1.0000 0.75000  0.25000  0.50000  Biso   1.000  Mo
  Ag1      1.0000 0.25000  0.75000  0.50000  Biso   1.000  Ag
  S1       1.0000 0.07791  0.66062  0.82324  Biso   1.000  S 
  S2       1.0000 0.83738  0.25467  0.17676  Biso   1.000  S 
  S3       1.0000 0.74533  0.92209  0.58271  Biso   1.000  S 
  S4       1.0000 0.33938  0.16262  0.41729  Biso   1.000  S 
  N1       1.0000 0.50000  0.50000  0.00000  Biso   1.000  N 
  H1       1.0000 0.29652  0.43302  0.93238  Biso   1.000  H 
  H2       1.0000 0.50064  0.36414  0.06762  Biso   1.000  H 
  H3       1.0000 0.63586  0.70348  0.13650  Biso   1.000  H 
  H4       1.0000 0.56698  0.49936  0.86350  Biso   1.000  H 
