data_image0
_cell_length_a       4.63027
_cell_length_b       10.056
_cell_length_c       10.2748
_cell_angle_alpha    90
_cell_angle_beta     90
_cell_angle_gamma    90

_symmetry_space_group_name_H-M    "P 1"
_symmetry_int_tables_number       1

loop_
  _symmetry_equiv_pos_as_xyz
  'x, y, z'

loop_
  _atom_site_label
  _atom_site_occupancy
  _atom_site_fract_x
  _atom_site_fract_y
  _atom_site_fract_z
  _atom_site_thermal_displace_type
  _atom_site_B_iso_or_equiv
  _atom_site_type_symbol
  Hg1      1.0000 0.50000  0.76639  0.25000  Biso   1.000  Hg
  Hg2      1.0000 0.50000  0.23361  0.75000  Biso   1.000  Hg
  Hg3      1.0000 0.50000  0.50000  0.50000  Biso   1.000  Hg
  Hg4      1.0000 0.50000  0.50000  0.00000  Biso   1.000  Hg
  Ag1      1.0000 0.00000  0.20982  0.42478  Biso   1.000  Ag
  Ag2      1.0000 0.00000  0.79018  0.57522  Biso   1.000  Ag
  Ag3      1.0000 0.00000  0.20982  0.07522  Biso   1.000  Ag
  Ag4      1.0000 0.00000  0.79018  0.92478  Biso   1.000  Ag
  I1       1.0000 0.00000  0.46327  0.25000  Biso   1.000  I 
  I2       1.0000 0.00000  0.53673  0.75000  Biso   1.000  I 
  I3       1.0000 0.00000  0.99273  0.25000  Biso   1.000  I 
  I4       1.0000 0.00000  0.00727  0.75000  Biso   1.000  I 
  S1       1.0000 0.50000  0.74062  0.48491  Biso   1.000  S 
  S2       1.0000 0.50000  0.25938  0.51509  Biso   1.000  S 
  S3       1.0000 0.50000  0.74062  0.01509  Biso   1.000  S 
  S4       1.0000 0.50000  0.25938  0.98491  Biso   1.000  S 
