data_image0
_cell_length_a       3.73671
_cell_length_b       7.20675
_cell_length_c       15.7039
_cell_angle_alpha    90
_cell_angle_beta     90
_cell_angle_gamma    90

_symmetry_space_group_name_H-M    "P 1"
_symmetry_int_tables_number       1

loop_
  _symmetry_equiv_pos_as_xyz
  'x, y, z'

loop_
  _atom_site_label
  _atom_site_occupancy
  _atom_site_fract_x
  _atom_site_fract_y
  _atom_site_fract_z
  _atom_site_thermal_displace_type
  _atom_site_B_iso_or_equiv
  _atom_site_type_symbol
  Ag1      1.0000 0.25000  0.92956  0.90819  Biso   1.000  Ag
  Ag2      1.0000 0.25000  0.42956  0.59181  Biso   1.000  Ag
  Ag3      1.0000 0.75000  0.07044  0.09181  Biso   1.000  Ag
  Ag4      1.0000 0.75000  0.57044  0.40819  Biso   1.000  Ag
  V1       1.0000 0.75000  0.37815  0.94352  Biso   1.000  V 
  V2       1.0000 0.75000  0.87815  0.55648  Biso   1.000  V 
  V3       1.0000 0.25000  0.62185  0.05648  Biso   1.000  V 
  V4       1.0000 0.25000  0.12185  0.44352  Biso   1.000  V 
  O1       1.0000 0.25000  0.35962  0.45268  Biso   1.000  O 
  O2       1.0000 0.25000  0.85962  0.04732  Biso   1.000  O 
  O3       1.0000 0.75000  0.64038  0.54732  Biso   1.000  O 
  O4       1.0000 0.75000  0.14038  0.95268  Biso   1.000  O 
  O5       1.0000 0.75000  0.58583  0.02735  Biso   1.000  O 
  O6       1.0000 0.75000  0.08583  0.47265  Biso   1.000  O 
  O7       1.0000 0.25000  0.41417  0.97265  Biso   1.000  O 
  O8       1.0000 0.25000  0.91417  0.52735  Biso   1.000  O 
  O9       1.0000 0.75000  0.93258  0.65936  Biso   1.000  O 
  O10      1.0000 0.75000  0.43258  0.84064  Biso   1.000  O 
  O11      1.0000 0.25000  0.06742  0.34064  Biso   1.000  O 
  O12      1.0000 0.25000  0.56742  0.15936  Biso   1.000  O 
  O13      1.0000 0.25000  0.34454  0.72522  Biso   1.000  O 
  O14      1.0000 0.25000  0.84454  0.77478  Biso   1.000  O 
  O15      1.0000 0.75000  0.65546  0.27478  Biso   1.000  O 
  O16      1.0000 0.75000  0.15546  0.22522  Biso   1.000  O 
  H1       1.0000 0.04345  0.38201  0.76120  Biso   1.000  H 
  H2       1.0000 0.45655  0.88201  0.73880  Biso   1.000  H 
  H3       1.0000 0.54345  0.61799  0.23880  Biso   1.000  H 
  H4       1.0000 0.95655  0.11799  0.26120  Biso   1.000  H 
  H5       1.0000 0.95655  0.61799  0.23880  Biso   1.000  H 
  H6       1.0000 0.54345  0.11799  0.26120  Biso   1.000  H 
  H7       1.0000 0.45655  0.38201  0.76120  Biso   1.000  H 
  H8       1.0000 0.04345  0.88201  0.73880  Biso   1.000  H 
