data_image0
_cell_length_a       6.59314
_cell_length_b       6.78126
_cell_length_c       12.8371
_cell_angle_alpha    90
_cell_angle_beta     90
_cell_angle_gamma    90

_symmetry_space_group_name_H-M    "P 1"
_symmetry_int_tables_number       1

loop_
  _symmetry_equiv_pos_as_xyz
  'x, y, z'

loop_
  _atom_site_label
  _atom_site_occupancy
  _atom_site_fract_x
  _atom_site_fract_y
  _atom_site_fract_z
  _atom_site_thermal_displace_type
  _atom_site_B_iso_or_equiv
  _atom_site_type_symbol
  Ag1      1.0000 0.70258  0.25000  0.64856  Biso   1.000  Ag
  Ag2      1.0000 0.20258  0.25000  0.85144  Biso   1.000  Ag
  Ag3      1.0000 0.29742  0.75000  0.35144  Biso   1.000  Ag
  Ag4      1.0000 0.79742  0.75000  0.14856  Biso   1.000  Ag
  Hg1      1.0000 0.70900  0.99988  0.39756  Biso   1.000  Hg
  Hg2      1.0000 0.20900  0.50012  0.10244  Biso   1.000  Hg
  Hg3      1.0000 0.29100  0.49988  0.60244  Biso   1.000  Hg
  Hg4      1.0000 0.79100  0.00012  0.89756  Biso   1.000  Hg
  Hg5      1.0000 0.29100  0.00012  0.60244  Biso   1.000  Hg
  Hg6      1.0000 0.79100  0.49988  0.89756  Biso   1.000  Hg
  Hg7      1.0000 0.70900  0.50012  0.39756  Biso   1.000  Hg
  Hg8      1.0000 0.20900  0.99988  0.10244  Biso   1.000  Hg
  N1       1.0000 0.70049  0.25000  0.14525  Biso   1.000  N 
  N2       1.0000 0.20049  0.25000  0.35475  Biso   1.000  N 
  N3       1.0000 0.29951  0.75000  0.85475  Biso   1.000  N 
  N4       1.0000 0.79951  0.75000  0.64525  Biso   1.000  N 
  O1       1.0000 0.63961  0.08827  0.10558  Biso   1.000  O 
  O2       1.0000 0.13961  0.41173  0.39442  Biso   1.000  O 
  O3       1.0000 0.36039  0.58827  0.89442  Biso   1.000  O 
  O4       1.0000 0.86039  0.91173  0.60558  Biso   1.000  O 
  O5       1.0000 0.36039  0.91173  0.89442  Biso   1.000  O 
  O6       1.0000 0.86039  0.58827  0.60558  Biso   1.000  O 
  O7       1.0000 0.63961  0.41173  0.10558  Biso   1.000  O 
  O8       1.0000 0.13961  0.08827  0.39442  Biso   1.000  O 
  O9       1.0000 0.61871  0.25000  0.47645  Biso   1.000  O 
  O10      1.0000 0.11871  0.25000  0.02356  Biso   1.000  O 
  O11      1.0000 0.38129  0.75000  0.52355  Biso   1.000  O 
  O12      1.0000 0.88129  0.75000  0.97645  Biso   1.000  O 
  O13      1.0000 0.69347  0.25000  0.82192  Biso   1.000  O 
  O14      1.0000 0.19347  0.25000  0.67808  Biso   1.000  O 
  O15      1.0000 0.30653  0.75000  0.17808  Biso   1.000  O 
  O16      1.0000 0.80653  0.75000  0.32192  Biso   1.000  O 
  O17      1.0000 0.82023  0.25000  0.22206  Biso   1.000  O 
  O18      1.0000 0.32023  0.25000  0.27794  Biso   1.000  O 
  O19      1.0000 0.17977  0.75000  0.77794  Biso   1.000  O 
  O20      1.0000 0.67977  0.75000  0.72206  Biso   1.000  O 
