data_image0
_cell_length_a       6.25945
_cell_length_b       8.84861
_cell_length_c       9.41476
_cell_angle_alpha    90
_cell_angle_beta     90
_cell_angle_gamma    90

_symmetry_space_group_name_H-M    "P 1"
_symmetry_int_tables_number       1

loop_
  _symmetry_equiv_pos_as_xyz
  'x, y, z'

loop_
  _atom_site_label
  _atom_site_occupancy
  _atom_site_fract_x
  _atom_site_fract_y
  _atom_site_fract_z
  _atom_site_thermal_displace_type
  _atom_site_B_iso_or_equiv
  _atom_site_type_symbol
  Hg1      1.0000 0.78673  0.24696  0.53241  Biso   1.000  Hg
  Hg2      1.0000 0.78673  0.75304  0.46759  Biso   1.000  Hg
  Hg3      1.0000 0.21327  0.25304  0.03241  Biso   1.000  Hg
  Hg4      1.0000 0.21327  0.74696  0.96759  Biso   1.000  Hg
  Hg5      1.0000 0.21327  0.75304  0.46759  Biso   1.000  Hg
  Hg6      1.0000 0.21327  0.24696  0.53241  Biso   1.000  Hg
  Hg7      1.0000 0.78673  0.74696  0.96759  Biso   1.000  Hg
  Hg8      1.0000 0.78673  0.25304  0.03241  Biso   1.000  Hg
  Ag1      1.0000 0.00000  0.47180  0.85205  Biso   1.000  Ag
  Ag2      1.0000 0.00000  0.52820  0.14795  Biso   1.000  Ag
  Ag3      1.0000 0.00000  0.02820  0.35205  Biso   1.000  Ag
  Ag4      1.0000 0.00000  0.97180  0.64795  Biso   1.000  Ag
  P1       1.0000 0.50000  0.04200  0.78472  Biso   1.000  P 
  P2       1.0000 0.50000  0.95800  0.21528  Biso   1.000  P 
  P3       1.0000 0.50000  0.45800  0.28472  Biso   1.000  P 
  P4       1.0000 0.50000  0.54200  0.71528  Biso   1.000  P 
  O1       1.0000 0.70978  0.44929  0.70057  Biso   1.000  O 
  O2       1.0000 0.70978  0.55071  0.29943  Biso   1.000  O 
  O3       1.0000 0.29022  0.05071  0.20057  Biso   1.000  O 
  O4       1.0000 0.29022  0.94929  0.79943  Biso   1.000  O 
  O5       1.0000 0.29022  0.55071  0.29943  Biso   1.000  O 
  O6       1.0000 0.29022  0.44929  0.70057  Biso   1.000  O 
  O7       1.0000 0.70978  0.94929  0.79943  Biso   1.000  O 
  O8       1.0000 0.70978  0.05071  0.20057  Biso   1.000  O 
  O9       1.0000 0.50000  0.11653  0.63410  Biso   1.000  O 
  O10      1.0000 0.50000  0.88347  0.36590  Biso   1.000  O 
  O11      1.0000 0.50000  0.38347  0.13410  Biso   1.000  O 
  O12      1.0000 0.50000  0.61653  0.86590  Biso   1.000  O 
  O13      1.0000 0.50000  0.16607  0.90477  Biso   1.000  O 
  O14      1.0000 0.50000  0.83393  0.09523  Biso   1.000  O 
  O15      1.0000 0.50000  0.33393  0.40477  Biso   1.000  O 
  O16      1.0000 0.50000  0.66607  0.59523  Biso   1.000  O 
