data_image0
_cell_length_a       6.36234
_cell_length_b       6.36234
_cell_length_c       6.36234
_cell_angle_alpha    102.152
_cell_angle_beta     102.152
_cell_angle_gamma    125.378

_symmetry_space_group_name_H-M    "P 1"
_symmetry_int_tables_number       1

loop_
  _symmetry_equiv_pos_as_xyz
  'x, y, z'

loop_
  _atom_site_label
  _atom_site_occupancy
  _atom_site_fract_x
  _atom_site_fract_y
  _atom_site_fract_z
  _atom_site_thermal_displace_type
  _atom_site_B_iso_or_equiv
  _atom_site_type_symbol
  W1       1.0000 0.25000  0.75000  0.50000  Biso   1.000  W 
  Ag1      1.0000 0.75000  0.25000  0.50000  Biso   1.000  Ag
  S1       1.0000 0.25584  0.83749  0.17932  Biso   1.000  S 
  S2       1.0000 0.65817  0.07653  0.82068  Biso   1.000  S 
  S3       1.0000 0.92347  0.74416  0.58164  Biso   1.000  S 
  S4       1.0000 0.16251  0.34183  0.41836  Biso   1.000  S 
  N1       1.0000 0.50000  0.50000  0.00000  Biso   1.000  N 
  H1       1.0000 0.36420  0.50072  0.06564  Biso   1.000  H 
  H2       1.0000 0.43508  0.29856  0.93436  Biso   1.000  H 
  H3       1.0000 0.70144  0.63580  0.13651  Biso   1.000  H 
  H4       1.0000 0.49928  0.56492  0.86349  Biso   1.000  H 
