data_image0
_cell_length_a       7.07635
_cell_length_b       7.07635
_cell_length_c       7.07635
_cell_angle_alpha    87.7592
_cell_angle_beta     87.7592
_cell_angle_gamma    87.7592

_symmetry_space_group_name_H-M    "P 1"
_symmetry_int_tables_number       1

loop_
  _symmetry_equiv_pos_as_xyz
  'x, y, z'

loop_
  _atom_site_label
  _atom_site_occupancy
  _atom_site_fract_x
  _atom_site_fract_y
  _atom_site_fract_z
  _atom_site_thermal_displace_type
  _atom_site_B_iso_or_equiv
  _atom_site_type_symbol
  Ag1      1.0000 0.25000  0.25000  0.25000  Biso   1.000  Ag
  Ag2      1.0000 0.75000  0.75000  0.75000  Biso   1.000  Ag
  Hg1      1.0000 0.59307  0.90693  0.25000  Biso   1.000  Hg
  Hg2      1.0000 0.90693  0.25000  0.59307  Biso   1.000  Hg
  Hg3      1.0000 0.25000  0.59307  0.90693  Biso   1.000  Hg
  Hg4      1.0000 0.09307  0.75000  0.40693  Biso   1.000  Hg
  Hg5      1.0000 0.75000  0.40693  0.09307  Biso   1.000  Hg
  Hg6      1.0000 0.40693  0.09307  0.75000  Biso   1.000  Hg
  Sb1      1.0000 0.00000  0.00000  0.00000  Biso   1.000  Sb
  Sb2      1.0000 0.50000  0.50000  0.50000  Biso   1.000  Sb
  O1       1.0000 0.28698  0.99300  0.00338  Biso   1.000  O 
  O2       1.0000 0.50700  0.21302  0.49662  Biso   1.000  O 
  O3       1.0000 0.21302  0.49662  0.50700  Biso   1.000  O 
  O4       1.0000 0.49662  0.50700  0.21302  Biso   1.000  O 
  O5       1.0000 0.00700  0.99662  0.71302  Biso   1.000  O 
  O6       1.0000 0.99662  0.71302  0.00700  Biso   1.000  O 
  O7       1.0000 0.71302  0.00700  0.99662  Biso   1.000  O 
  O8       1.0000 0.49300  0.78698  0.50338  Biso   1.000  O 
  O9       1.0000 0.78698  0.50338  0.49300  Biso   1.000  O 
  O10      1.0000 0.50338  0.49300  0.78698  Biso   1.000  O 
  O11      1.0000 0.99300  0.00338  0.28698  Biso   1.000  O 
  O12      1.0000 0.00338  0.28698  0.99300  Biso   1.000  O 
