data_image0
_cell_length_a       9.21683
_cell_length_b       7.72662
_cell_length_c       7.77102
_cell_angle_alpha    83.1388
_cell_angle_beta     90
_cell_angle_gamma    90

_symmetry_space_group_name_H-M    "P 1"
_symmetry_int_tables_number       1

loop_
  _symmetry_equiv_pos_as_xyz
  'x, y, z'

loop_
  _atom_site_label
  _atom_site_occupancy
  _atom_site_fract_x
  _atom_site_fract_y
  _atom_site_fract_z
  _atom_site_thermal_displace_type
  _atom_site_B_iso_or_equiv
  _atom_site_type_symbol
  Ag1      1.0000 0.94975  0.00324  0.51640  Biso   1.000  Ag
  Ag2      1.0000 0.05025  0.00324  0.01640  Biso   1.000  Ag
  Ag3      1.0000 0.06369  0.50084  0.78844  Biso   1.000  Ag
  Ag4      1.0000 0.93631  0.50084  0.28844  Biso   1.000  Ag
  S1       1.0000 0.69774  0.66510  0.60709  Biso   1.000  S 
  S2       1.0000 0.30226  0.66510  0.10709  Biso   1.000  S 
  S3       1.0000 0.91814  0.67817  0.54426  Biso   1.000  S 
  S4       1.0000 0.08186  0.67817  0.04426  Biso   1.000  S 
  S5       1.0000 0.29935  0.16826  0.64398  Biso   1.000  S 
  S6       1.0000 0.70065  0.16826  0.14398  Biso   1.000  S 
  S7       1.0000 0.08272  0.18716  0.71883  Biso   1.000  S 
  S8       1.0000 0.91728  0.18716  0.21883  Biso   1.000  S 
  O1       1.0000 0.68017  0.70071  0.78927  Biso   1.000  O 
  O2       1.0000 0.31983  0.70071  0.28927  Biso   1.000  O 
  O3       1.0000 0.64871  0.48487  0.58973  Biso   1.000  O 
  O4       1.0000 0.35129  0.48487  0.08973  Biso   1.000  O 
  O5       1.0000 0.62249  0.79431  0.48513  Biso   1.000  O 
  O6       1.0000 0.37751  0.79431  0.98513  Biso   1.000  O 
  O7       1.0000 0.38851  0.19518  0.79880  Biso   1.000  O 
  O8       1.0000 0.61149  0.19518  0.29880  Biso   1.000  O 
  O9       1.0000 0.32586  0.30331  0.49837  Biso   1.000  O 
  O10      1.0000 0.67414  0.30331  0.99837  Biso   1.000  O 
  O11      1.0000 0.32420  0.99086  0.59614  Biso   1.000  O 
  O12      1.0000 0.67580  0.99086  0.09614  Biso   1.000  O 
  O13      1.0000 0.70899  0.12728  0.63788  Biso   1.000  O 
  O14      1.0000 0.29101  0.12728  0.13788  Biso   1.000  O 
  O15      1.0000 0.30713  0.62713  0.66261  Biso   1.000  O 
  O16      1.0000 0.69287  0.62713  0.16261  Biso   1.000  O 
  Na1      1.0000 0.56129  0.95824  0.83179  Biso   1.000  Na
  Na2      1.0000 0.43871  0.95824  0.33179  Biso   1.000  Na
  Na3      1.0000 0.48498  0.46290  0.83878  Biso   1.000  Na
  Na4      1.0000 0.51502  0.46290  0.33878  Biso   1.000  Na
  H1       1.0000 0.67516  0.13933  0.51629  Biso   1.000  H 
  H2       1.0000 0.32484  0.13933  0.01629  Biso   1.000  H 
  H3       1.0000 0.71795  0.24907  0.66100  Biso   1.000  H 
  H4       1.0000 0.28205  0.24907  0.16100  Biso   1.000  H 
  H5       1.0000 0.29646  0.61459  0.53906  Biso   1.000  H 
  H6       1.0000 0.70354  0.61459  0.03906  Biso   1.000  H 
  H7       1.0000 0.30187  0.75379  0.66779  Biso   1.000  H 
  H8       1.0000 0.69813  0.75379  0.16779  Biso   1.000  H 
