data_image0
_cell_length_a       7.18183
_cell_length_b       7.77806
_cell_length_c       8.58711
_cell_angle_alpha    90
_cell_angle_beta     90
_cell_angle_gamma    90

_symmetry_space_group_name_H-M    "P 1"
_symmetry_int_tables_number       1

loop_
  _symmetry_equiv_pos_as_xyz
  'x, y, z'

loop_
  _atom_site_label
  _atom_site_occupancy
  _atom_site_fract_x
  _atom_site_fract_y
  _atom_site_fract_z
  _atom_site_thermal_displace_type
  _atom_site_B_iso_or_equiv
  _atom_site_type_symbol
  Hg1      1.0000 0.74591  0.72539  0.47934  Biso   1.000  Hg
  Hg2      1.0000 0.75409  0.27461  0.97934  Biso   1.000  Hg
  Hg3      1.0000 0.24591  0.77461  0.52066  Biso   1.000  Hg
  Hg4      1.0000 0.25409  0.22539  0.02066  Biso   1.000  Hg
  Ag1      1.0000 0.11128  0.67285  0.11021  Biso   1.000  Ag
  Ag2      1.0000 0.38872  0.32715  0.61021  Biso   1.000  Ag
  Ag3      1.0000 0.61128  0.82715  0.88979  Biso   1.000  Ag
  Ag4      1.0000 0.88872  0.17285  0.38979  Biso   1.000  Ag
  I1       1.0000 0.01010  0.87620  0.85588  Biso   1.000  I 
  I2       1.0000 0.48990  0.12380  0.35588  Biso   1.000  I 
  I3       1.0000 0.51010  0.62380  0.14412  Biso   1.000  I 
  I4       1.0000 0.98990  0.37620  0.64412  Biso   1.000  I 
  S1       1.0000 0.00104  0.86049  0.34748  Biso   1.000  S 
  S2       1.0000 0.49896  0.13951  0.84748  Biso   1.000  S 
  S3       1.0000 0.50104  0.63951  0.65252  Biso   1.000  S 
  S4       1.0000 0.99896  0.36049  0.15252  Biso   1.000  S 
