data_image0
_cell_length_a       5.52391
_cell_length_b       10.4828
_cell_length_c       7.22596
_cell_angle_alpha    81.3754
_cell_angle_beta     90
_cell_angle_gamma    90

_symmetry_space_group_name_H-M    "P 1"
_symmetry_int_tables_number       1

loop_
  _symmetry_equiv_pos_as_xyz
  'x, y, z'

loop_
  _atom_site_label
  _atom_site_occupancy
  _atom_site_fract_x
  _atom_site_fract_y
  _atom_site_fract_z
  _atom_site_thermal_displace_type
  _atom_site_B_iso_or_equiv
  _atom_site_type_symbol
  Hg1      1.0000 0.03363  1.00000  0.50000  Biso   1.000  Hg
  Hg2      1.0000 0.53363  0.50000  0.50000  Biso   1.000  Hg
  Hg3      1.0000 0.99449  0.00000  0.00000  Biso   1.000  Hg
  Hg4      1.0000 0.49449  0.50000  1.00000  Biso   1.000  Hg
  Ag1      1.0000 0.51390  0.86677  0.71930  Biso   1.000  Ag
  Ag2      1.0000 0.51390  0.13323  0.28070  Biso   1.000  Ag
  Ag3      1.0000 0.01390  0.63323  0.28070  Biso   1.000  Ag
  Ag4      1.0000 0.01390  0.36677  0.71930  Biso   1.000  Ag
  V1       1.0000 0.49483  0.81240  0.22970  Biso   1.000  V 
  V2       1.0000 0.49483  0.18760  0.77030  Biso   1.000  V 
  V3       1.0000 0.99482  0.68761  0.77030  Biso   1.000  V 
  V4       1.0000 0.99482  0.31239  0.22970  Biso   1.000  V 
  O1       1.0000 0.18647  0.85422  0.21485  Biso   1.000  O 
  O2       1.0000 0.18647  0.14578  0.78515  Biso   1.000  O 
  O3       1.0000 0.68648  0.64578  0.78515  Biso   1.000  O 
  O4       1.0000 0.68648  0.35422  0.21485  Biso   1.000  O 
  O5       1.0000 0.55774  0.63736  0.26544  Biso   1.000  O 
  O6       1.0000 0.55774  0.36264  0.73456  Biso   1.000  O 
  O7       1.0000 0.05774  0.86264  0.73456  Biso   1.000  O 
  O8       1.0000 0.05774  0.13736  0.26544  Biso   1.000  O 
  O9       1.0000 0.11681  0.61650  0.59421  Biso   1.000  O 
  O10      1.0000 0.11681  0.38350  0.40579  Biso   1.000  O 
  O11      1.0000 0.61681  0.88351  0.40579  Biso   1.000  O 
  O12      1.0000 0.61681  0.11649  0.59421  Biso   1.000  O 
  O13      1.0000 0.14140  0.36648  0.02429  Biso   1.000  O 
  O14      1.0000 0.14140  0.63352  0.97571  Biso   1.000  O 
  O15      1.0000 0.64141  0.13352  0.97571  Biso   1.000  O 
  O16      1.0000 0.64141  0.86648  0.02429  Biso   1.000  O 
