data_image0
_cell_length_a       4.9674
_cell_length_b       10.4233
_cell_length_c       20.2507
_cell_angle_alpha    90
_cell_angle_beta     90
_cell_angle_gamma    90

_symmetry_space_group_name_H-M    "P 1"
_symmetry_int_tables_number       1

loop_
  _symmetry_equiv_pos_as_xyz
  'x, y, z'

loop_
  _atom_site_label
  _atom_site_occupancy
  _atom_site_fract_x
  _atom_site_fract_y
  _atom_site_fract_z
  _atom_site_thermal_displace_type
  _atom_site_B_iso_or_equiv
  _atom_site_type_symbol
  Rb1      1.0000 0.25000  0.07729  0.71111  Biso   1.000  Rb
  Rb2      1.0000 0.25000  0.57729  0.78889  Biso   1.000  Rb
  Rb3      1.0000 0.75000  0.92271  0.28889  Biso   1.000  Rb
  Rb4      1.0000 0.75000  0.42271  0.21111  Biso   1.000  Rb
  Rb5      1.0000 0.25000  0.75265  0.04251  Biso   1.000  Rb
  Rb6      1.0000 0.25000  0.25265  0.45749  Biso   1.000  Rb
  Rb7      1.0000 0.75000  0.24735  0.95749  Biso   1.000  Rb
  Rb8      1.0000 0.75000  0.74735  0.54251  Biso   1.000  Rb
  Ag1      1.0000 0.25000  0.63606  0.36445  Biso   1.000  Ag
  Ag2      1.0000 0.25000  0.13606  0.13555  Biso   1.000  Ag
  Ag3      1.0000 0.75000  0.36394  0.63555  Biso   1.000  Ag
  Ag4      1.0000 0.75000  0.86394  0.86445  Biso   1.000  Ag
  I1       1.0000 0.25000  0.68786  0.22488  Biso   1.000  I 
  I2       1.0000 0.25000  0.18786  0.27512  Biso   1.000  I 
  I3       1.0000 0.75000  0.31214  0.77512  Biso   1.000  I 
  I4       1.0000 0.75000  0.81214  0.72488  Biso   1.000  I 
  I5       1.0000 0.25000  0.87986  0.42937  Biso   1.000  I 
  I6       1.0000 0.25000  0.37986  0.07063  Biso   1.000  I 
  I7       1.0000 0.75000  0.12014  0.57063  Biso   1.000  I 
  I8       1.0000 0.75000  0.62014  0.92937  Biso   1.000  I 
  I9       1.0000 0.25000  0.99614  0.89828  Biso   1.000  I 
  I10      1.0000 0.25000  0.49614  0.60172  Biso   1.000  I 
  I11      1.0000 0.75000  0.00386  0.10172  Biso   1.000  I 
  I12      1.0000 0.75000  0.50386  0.39828  Biso   1.000  I 
