data_image0
_cell_length_a       4.95261
_cell_length_b       8.84487
_cell_length_c       16.4161
_cell_angle_alpha    90
_cell_angle_beta     90
_cell_angle_gamma    90

_symmetry_space_group_name_H-M    "P 1"
_symmetry_int_tables_number       1

loop_
  _symmetry_equiv_pos_as_xyz
  'x, y, z'

loop_
  _atom_site_label
  _atom_site_occupancy
  _atom_site_fract_x
  _atom_site_fract_y
  _atom_site_fract_z
  _atom_site_thermal_displace_type
  _atom_site_B_iso_or_equiv
  _atom_site_type_symbol
  Te1      1.0000 0.62878  0.28517  0.00000  Biso   1.000  Te
  Te2      1.0000 0.37122  0.71483  0.00000  Biso   1.000  Te
  Te3      1.0000 0.62878  0.21483  0.50000  Biso   1.000  Te
  Te4      1.0000 0.37122  0.78517  0.50000  Biso   1.000  Te
  Te5      1.0000 0.36279  0.13998  0.12653  Biso   1.000  Te
  Te6      1.0000 0.63721  0.86002  0.12653  Biso   1.000  Te
  Te7      1.0000 0.36279  0.36002  0.37347  Biso   1.000  Te
  Te8      1.0000 0.63721  0.63998  0.37347  Biso   1.000  Te
  Te9      1.0000 0.63721  0.86002  0.87347  Biso   1.000  Te
  Te10     1.0000 0.36279  0.13998  0.87347  Biso   1.000  Te
  Te11     1.0000 0.63721  0.63998  0.62653  Biso   1.000  Te
  Te12     1.0000 0.36279  0.36002  0.62653  Biso   1.000  Te
  I1       1.0000 0.00000  0.50000  0.17580  Biso   1.000  I 
  I2       1.0000 0.00000  0.00000  0.32420  Biso   1.000  I 
  I3       1.0000 0.00000  0.50000  0.82420  Biso   1.000  I 
  I4       1.0000 0.00000  0.00000  0.67580  Biso   1.000  I 
  Ag1      1.0000 0.70235  0.25000  0.25000  Biso   1.000  Ag
  Ag2      1.0000 0.29765  0.75000  0.25000  Biso   1.000  Ag
  Ag3      1.0000 0.29765  0.75000  0.75000  Biso   1.000  Ag
  Ag4      1.0000 0.70235  0.25000  0.75000  Biso   1.000  Ag
