data_image0
_cell_length_a       6.24748
_cell_length_b       6.24748
_cell_length_c       13.8875
_cell_angle_alpha    90
_cell_angle_beta     90
_cell_angle_gamma    120

_symmetry_space_group_name_H-M    "P 1"
_symmetry_int_tables_number       1

loop_
  _symmetry_equiv_pos_as_xyz
  'x, y, z'

loop_
  _atom_site_label
  _atom_site_occupancy
  _atom_site_fract_x
  _atom_site_fract_y
  _atom_site_fract_z
  _atom_site_thermal_displace_type
  _atom_site_B_iso_or_equiv
  _atom_site_type_symbol
  Ag1      1.0000 0.66667  0.33333  0.25000  Biso   1.000  Ag
  Ag2      1.0000 0.33333  0.66667  0.75000  Biso   1.000  Ag
  In1      1.0000 0.00000  0.00000  0.25000  Biso   1.000  In
  In2      1.0000 0.00000  0.00000  0.75000  Biso   1.000  In
  P1       1.0000 0.33333  0.66667  0.33135  Biso   1.000  P 
  P2       1.0000 0.66667  0.33333  0.83135  Biso   1.000  P 
  P3       1.0000 0.66667  0.33333  0.66865  Biso   1.000  P 
  P4       1.0000 0.33333  0.66667  0.16865  Biso   1.000  P 
  S1       1.0000 0.02780  0.34577  0.37268  Biso   1.000  S 
  S2       1.0000 0.31796  0.97220  0.37268  Biso   1.000  S 
  S3       1.0000 0.65423  0.68204  0.37268  Biso   1.000  S 
  S4       1.0000 0.97220  0.31796  0.87268  Biso   1.000  S 
  S5       1.0000 0.34577  0.02780  0.87268  Biso   1.000  S 
  S6       1.0000 0.68204  0.65423  0.87268  Biso   1.000  S 
  S7       1.0000 0.97220  0.65423  0.62732  Biso   1.000  S 
  S8       1.0000 0.68204  0.02780  0.62732  Biso   1.000  S 
  S9       1.0000 0.34577  0.31796  0.62732  Biso   1.000  S 
  S10      1.0000 0.02780  0.68204  0.12732  Biso   1.000  S 
  S11      1.0000 0.65423  0.97220  0.12732  Biso   1.000  S 
  S12      1.0000 0.31796  0.34577  0.12732  Biso   1.000  S 
