data_image0
_cell_length_a       6.35642
_cell_length_b       6.35642
_cell_length_c       12.7286
_cell_angle_alpha    90
_cell_angle_beta     90
_cell_angle_gamma    90

_symmetry_space_group_name_H-M    "P 1"
_symmetry_int_tables_number       1

loop_
  _symmetry_equiv_pos_as_xyz
  'x, y, z'

loop_
  _atom_site_label
  _atom_site_occupancy
  _atom_site_fract_x
  _atom_site_fract_y
  _atom_site_fract_z
  _atom_site_thermal_displace_type
  _atom_site_B_iso_or_equiv
  _atom_site_type_symbol
  Ag1      1.0000 0.00000  0.00000  0.50000  Biso   1.000  Ag
  In1      1.0000 0.50000  0.00000  0.25531  Biso   1.000  In
  In2      1.0000 0.50000  0.00000  0.74469  Biso   1.000  In
  In3      1.0000 0.00000  0.50000  0.74469  Biso   1.000  In
  In4      1.0000 0.00000  0.50000  0.25531  Biso   1.000  In
  In5      1.0000 0.50000  0.50000  0.00000  Biso   1.000  In
  Te1      1.0000 0.77637  0.77637  0.11116  Biso   1.000  Te
  Te2      1.0000 0.22363  0.22363  0.11116  Biso   1.000  Te
  Te3      1.0000 0.22363  0.77637  0.88884  Biso   1.000  Te
  Te4      1.0000 0.77637  0.22363  0.88884  Biso   1.000  Te
  Te5      1.0000 0.27056  0.27056  0.61187  Biso   1.000  Te
  Te6      1.0000 0.72944  0.72944  0.61187  Biso   1.000  Te
  Te7      1.0000 0.72944  0.27056  0.38813  Biso   1.000  Te
  Te8      1.0000 0.27056  0.72944  0.38813  Biso   1.000  Te
