data_image0
_cell_length_a       5.9173
_cell_length_b       5.9173
_cell_length_c       11.9881
_cell_angle_alpha    90
_cell_angle_beta     90
_cell_angle_gamma    90

_symmetry_space_group_name_H-M    "P 1"
_symmetry_int_tables_number       1

loop_
  _symmetry_equiv_pos_as_xyz
  'x, y, z'

loop_
  _atom_site_label
  _atom_site_occupancy
  _atom_site_fract_x
  _atom_site_fract_y
  _atom_site_fract_z
  _atom_site_thermal_displace_type
  _atom_site_B_iso_or_equiv
  _atom_site_type_symbol
  Ag1      1.0000 0.00000  0.00000  0.50000  Biso   1.000  Ag
  In1      1.0000 0.50000  0.00000  0.25421  Biso   1.000  In
  In2      1.0000 0.50000  0.00000  0.74579  Biso   1.000  In
  In3      1.0000 0.00000  0.50000  0.74579  Biso   1.000  In
  In4      1.0000 0.00000  0.50000  0.25421  Biso   1.000  In
  In5      1.0000 0.50000  0.50000  0.00000  Biso   1.000  In
  Se1      1.0000 0.77356  0.77356  0.11200  Biso   1.000  Se
  Se2      1.0000 0.22644  0.22644  0.11200  Biso   1.000  Se
  Se3      1.0000 0.22644  0.77356  0.88800  Biso   1.000  Se
  Se4      1.0000 0.77356  0.22644  0.88800  Biso   1.000  Se
  Se5      1.0000 0.27205  0.27205  0.61719  Biso   1.000  Se
  Se6      1.0000 0.72795  0.72795  0.61719  Biso   1.000  Se
  Se7      1.0000 0.72795  0.27205  0.38281  Biso   1.000  Se
  Se8      1.0000 0.27205  0.72795  0.38281  Biso   1.000  Se
