data_image0
_cell_length_a       4.64738
_cell_length_b       4.64709
_cell_length_c       7.58735
_cell_angle_alpha    90
_cell_angle_beta     90
_cell_angle_gamma    119.998

_symmetry_space_group_name_H-M    "P 1"
_symmetry_int_tables_number       1

loop_
  _symmetry_equiv_pos_as_xyz
  'x, y, z'

loop_
  _atom_site_label
  _atom_site_occupancy
  _atom_site_fract_x
  _atom_site_fract_y
  _atom_site_fract_z
  _atom_site_thermal_displace_type
  _atom_site_B_iso_or_equiv
  _atom_site_type_symbol
  I1       1.0000 0.33331  0.66671  0.99983  Biso   1.000  I 
  I2       1.0000 0.66669  0.33339  0.49983  Biso   1.000  I 
  Ag1      1.0000 0.33331  0.66671  0.62487  Biso   1.000  Ag
  Ag2      1.0000 0.66669  0.33339  0.12487  Biso   1.000  Ag
