data_image0
_cell_length_a       5.82486
_cell_length_b       7.22665
_cell_length_c       15.295
_cell_angle_alpha    90
_cell_angle_beta     90
_cell_angle_gamma    90

_symmetry_space_group_name_H-M    "P 1"
_symmetry_int_tables_number       1

loop_
  _symmetry_equiv_pos_as_xyz
  'x, y, z'

loop_
  _atom_site_label
  _atom_site_occupancy
  _atom_site_fract_x
  _atom_site_fract_y
  _atom_site_fract_z
  _atom_site_thermal_displace_type
  _atom_site_B_iso_or_equiv
  _atom_site_type_symbol
  Ag1      1.0000 0.99117  0.60134  0.20153  Biso   1.000  Ag
  Ag2      1.0000 0.49117  0.39866  0.79847  Biso   1.000  Ag
  Ag3      1.0000 0.49117  0.60134  0.29847  Biso   1.000  Ag
  Ag4      1.0000 0.99117  0.39866  0.70153  Biso   1.000  Ag
  Ag5      1.0000 0.00387  0.13547  0.20638  Biso   1.000  Ag
  Ag6      1.0000 0.50387  0.86453  0.79362  Biso   1.000  Ag
  Ag7      1.0000 0.50387  0.13547  0.29362  Biso   1.000  Ag
  Ag8      1.0000 0.00387  0.86453  0.70638  Biso   1.000  Ag
  I1       1.0000 0.40118  0.87018  0.08907  Biso   1.000  I 
  I2       1.0000 0.90118  0.12982  0.91093  Biso   1.000  I 
  I3       1.0000 0.90118  0.87018  0.41093  Biso   1.000  I 
  I4       1.0000 0.40118  0.12982  0.58907  Biso   1.000  I 
  I5       1.0000 0.48181  0.36441  0.08620  Biso   1.000  I 
  I6       1.0000 0.98181  0.63559  0.91380  Biso   1.000  I 
  I7       1.0000 0.98181  0.36441  0.41380  Biso   1.000  I 
  I8       1.0000 0.48181  0.63559  0.58620  Biso   1.000  I 
  O1       1.0000 0.68001  0.56166  0.10120  Biso   1.000  O 
  O2       1.0000 0.18001  0.43834  0.89880  Biso   1.000  O 
  O3       1.0000 0.18001  0.56166  0.39880  Biso   1.000  O 
  O4       1.0000 0.68001  0.43834  0.60120  Biso   1.000  O 
  O5       1.0000 0.19605  0.67719  0.06774  Biso   1.000  O 
  O6       1.0000 0.69605  0.32281  0.93226  Biso   1.000  O 
  O7       1.0000 0.69605  0.67719  0.43226  Biso   1.000  O 
  O8       1.0000 0.19605  0.32281  0.56774  Biso   1.000  O 
  O9       1.0000 0.67325  0.16847  0.11459  Biso   1.000  O 
  O10      1.0000 0.17325  0.83153  0.88541  Biso   1.000  O 
  O11      1.0000 0.17325  0.16847  0.38541  Biso   1.000  O 
  O12      1.0000 0.67325  0.83153  0.61459  Biso   1.000  O 
  O13      1.0000 0.20133  0.06503  0.06943  Biso   1.000  O 
  O14      1.0000 0.70133  0.93497  0.93057  Biso   1.000  O 
  O15      1.0000 0.70133  0.06503  0.43057  Biso   1.000  O 
  O16      1.0000 0.20133  0.93497  0.56943  Biso   1.000  O 
  O17      1.0000 0.37037  0.86503  0.20882  Biso   1.000  O 
  O18      1.0000 0.87037  0.13497  0.79118  Biso   1.000  O 
  O19      1.0000 0.87037  0.86503  0.29118  Biso   1.000  O 
  O20      1.0000 0.37037  0.13497  0.70882  Biso   1.000  O 
  O21      1.0000 0.33737  0.37597  0.19506  Biso   1.000  O 
  O22      1.0000 0.83737  0.62403  0.80494  Biso   1.000  O 
  O23      1.0000 0.83737  0.37597  0.30494  Biso   1.000  O 
  O24      1.0000 0.33737  0.62403  0.69506  Biso   1.000  O 
