data_image0
_cell_length_a       4.91223
_cell_length_b       8.20786
_cell_length_c       15.0386
_cell_angle_alpha    90
_cell_angle_beta     90
_cell_angle_gamma    90

_symmetry_space_group_name_H-M    "P 1"
_symmetry_int_tables_number       1

loop_
  _symmetry_equiv_pos_as_xyz
  'x, y, z'

loop_
  _atom_site_label
  _atom_site_occupancy
  _atom_site_fract_x
  _atom_site_fract_y
  _atom_site_fract_z
  _atom_site_thermal_displace_type
  _atom_site_B_iso_or_equiv
  _atom_site_type_symbol
  Se1      1.0000 0.60369  0.26548  0.00000  Biso   1.000  Se
  Se2      1.0000 0.39631  0.73452  0.00000  Biso   1.000  Se
  Se3      1.0000 0.60369  0.23452  0.50000  Biso   1.000  Se
  Se4      1.0000 0.39631  0.76548  0.50000  Biso   1.000  Se
  Se5      1.0000 0.38052  0.13046  0.12028  Biso   1.000  Se
  Se6      1.0000 0.61948  0.86954  0.12028  Biso   1.000  Se
  Se7      1.0000 0.38052  0.36954  0.37972  Biso   1.000  Se
  Se8      1.0000 0.61948  0.63046  0.37972  Biso   1.000  Se
  Se9      1.0000 0.61948  0.86954  0.87972  Biso   1.000  Se
  Se10     1.0000 0.38052  0.13046  0.87972  Biso   1.000  Se
  Se11     1.0000 0.61948  0.63046  0.62028  Biso   1.000  Se
  Se12     1.0000 0.38052  0.36954  0.62028  Biso   1.000  Se
  I1       1.0000 0.00000  0.50000  0.16354  Biso   1.000  I 
  I2       1.0000 0.00000  0.00000  0.33646  Biso   1.000  I 
  I3       1.0000 0.00000  0.50000  0.83646  Biso   1.000  I 
  I4       1.0000 0.00000  0.00000  0.66354  Biso   1.000  I 
  Ag1      1.0000 0.69662  0.25000  0.25000  Biso   1.000  Ag
  Ag2      1.0000 0.30338  0.75000  0.25000  Biso   1.000  Ag
  Ag3      1.0000 0.30338  0.75000  0.75000  Biso   1.000  Ag
  Ag4      1.0000 0.69662  0.25000  0.75000  Biso   1.000  Ag
