data_image0
_cell_length_a       4.64944
_cell_length_b       4.64944
_cell_length_c       15.1763
_cell_angle_alpha    90
_cell_angle_beta     90
_cell_angle_gamma    120

_symmetry_space_group_name_H-M    "P 1"
_symmetry_int_tables_number       1

loop_
  _symmetry_equiv_pos_as_xyz
  'x, y, z'

loop_
  _atom_site_label
  _atom_site_occupancy
  _atom_site_fract_x
  _atom_site_fract_y
  _atom_site_fract_z
  _atom_site_thermal_displace_type
  _atom_site_B_iso_or_equiv
  _atom_site_type_symbol
  Ag1      1.0000 0.00000  0.00000  0.28156  Biso   1.000  Ag
  Ag2      1.0000 0.00000  0.00000  0.78156  Biso   1.000  Ag
  Ag3      1.0000 0.66667  0.33333  0.53105  Biso   1.000  Ag
  Ag4      1.0000 0.33333  0.66667  0.03105  Biso   1.000  Ag
  I1       1.0000 0.00000  0.00000  0.96886  Biso   1.000  I 
  I2       1.0000 0.00000  0.00000  0.46886  Biso   1.000  I 
  I3       1.0000 0.66667  0.33333  0.71853  Biso   1.000  I 
  I4       1.0000 0.33333  0.66667  0.21853  Biso   1.000  I 
