data_image0
_cell_length_a       5.81907
_cell_length_b       6.05454
_cell_length_c       17.4542
_cell_angle_alpha    90
_cell_angle_beta     90
_cell_angle_gamma    90

_symmetry_space_group_name_H-M    "P 1"
_symmetry_int_tables_number       1

loop_
  _symmetry_equiv_pos_as_xyz
  'x, y, z'

loop_
  _atom_site_label
  _atom_site_occupancy
  _atom_site_fract_x
  _atom_site_fract_y
  _atom_site_fract_z
  _atom_site_thermal_displace_type
  _atom_site_B_iso_or_equiv
  _atom_site_type_symbol
  Ag1      1.0000 0.51984  0.28960  0.53843  Biso   1.000  Ag
  Ag2      1.0000 0.48016  0.78960  0.96157  Biso   1.000  Ag
  Ag3      1.0000 0.98016  0.71040  0.03843  Biso   1.000  Ag
  Ag4      1.0000 0.01984  0.21040  0.46157  Biso   1.000  Ag
  Ag5      1.0000 0.48016  0.71040  0.46157  Biso   1.000  Ag
  Ag6      1.0000 0.51984  0.21040  0.03843  Biso   1.000  Ag
  Ag7      1.0000 0.01984  0.28960  0.96157  Biso   1.000  Ag
  Ag8      1.0000 0.98016  0.78960  0.53843  Biso   1.000  Ag
  I1       1.0000 0.00858  0.30825  0.66468  Biso   1.000  I 
  I2       1.0000 0.99142  0.80825  0.83532  Biso   1.000  I 
  I3       1.0000 0.49142  0.69175  0.16468  Biso   1.000  I 
  I4       1.0000 0.50858  0.19175  0.33532  Biso   1.000  I 
  I5       1.0000 0.99142  0.69175  0.33532  Biso   1.000  I 
  I6       1.0000 0.00858  0.19175  0.16468  Biso   1.000  I 
  I7       1.0000 0.50858  0.30825  0.83532  Biso   1.000  I 
  I8       1.0000 0.49142  0.80825  0.66468  Biso   1.000  I 
  O1       1.0000 0.13218  0.39880  0.57132  Biso   1.000  O 
  O2       1.0000 0.86782  0.89880  0.92868  Biso   1.000  O 
  O3       1.0000 0.36782  0.60120  0.07132  Biso   1.000  O 
  O4       1.0000 0.63218  0.10120  0.42868  Biso   1.000  O 
  O5       1.0000 0.86782  0.60120  0.42868  Biso   1.000  O 
  O6       1.0000 0.13218  0.10120  0.07132  Biso   1.000  O 
  O7       1.0000 0.63218  0.39880  0.92868  Biso   1.000  O 
  O8       1.0000 0.36782  0.89880  0.57132  Biso   1.000  O 
  O9       1.0000 0.24971  0.15625  0.70793  Biso   1.000  O 
  O10      1.0000 0.75029  0.65625  0.79207  Biso   1.000  O 
  O11      1.0000 0.25029  0.84375  0.20793  Biso   1.000  O 
  O12      1.0000 0.74971  0.34375  0.29207  Biso   1.000  O 
  O13      1.0000 0.75029  0.84375  0.29207  Biso   1.000  O 
  O14      1.0000 0.24971  0.34375  0.20793  Biso   1.000  O 
  O15      1.0000 0.74971  0.15625  0.79207  Biso   1.000  O 
  O16      1.0000 0.25029  0.65625  0.70793  Biso   1.000  O 
  O17      1.0000 0.84167  0.07729  0.62083  Biso   1.000  O 
  O18      1.0000 0.15833  0.57729  0.87917  Biso   1.000  O 
  O19      1.0000 0.65833  0.92271  0.12083  Biso   1.000  O 
  O20      1.0000 0.34167  0.42271  0.37917  Biso   1.000  O 
  O21      1.0000 0.15833  0.92271  0.37917  Biso   1.000  O 
  O22      1.0000 0.84167  0.42271  0.12083  Biso   1.000  O 
  O23      1.0000 0.34167  0.07729  0.87917  Biso   1.000  O 
  O24      1.0000 0.65833  0.57729  0.62083  Biso   1.000  O 
