data_image0
_cell_length_a       6.87145
_cell_length_b       8.51042
_cell_length_c       8.56306
_cell_angle_alpha    66.1185
_cell_angle_beta     73.4466
_cell_angle_gamma    81.6207

_symmetry_space_group_name_H-M    "P 1"
_symmetry_int_tables_number       1

loop_
  _symmetry_equiv_pos_as_xyz
  'x, y, z'

loop_
  _atom_site_label
  _atom_site_occupancy
  _atom_site_fract_x
  _atom_site_fract_y
  _atom_site_fract_z
  _atom_site_thermal_displace_type
  _atom_site_B_iso_or_equiv
  _atom_site_type_symbol
  Ag1      1.0000 0.35852  0.12923  0.15994  Biso   1.000  Ag
  Ag2      1.0000 0.64148  0.87077  0.84006  Biso   1.000  Ag
  Pd1      1.0000 1.00000  0.00000  0.50000  Biso   1.000  Pd
  Pd2      1.0000 0.00000  0.00000  0.00000  Biso   1.000  Pd
  I1       1.0000 0.27140  0.21961  0.60556  Biso   1.000  I 
  I2       1.0000 0.72860  0.78039  0.39444  Biso   1.000  I 
  I3       1.0000 0.25128  0.64883  0.77515  Biso   1.000  I 
  I4       1.0000 0.74872  0.35117  0.22485  Biso   1.000  I 
  I5       1.0000 0.71252  0.29871  0.75301  Biso   1.000  I 
  I6       1.0000 0.28748  0.70129  0.24699  Biso   1.000  I 
  O1       1.0000 0.02007  0.21128  0.54688  Biso   1.000  O 
  O2       1.0000 0.97993  0.78872  0.45312  Biso   1.000  O 
  O3       1.0000 0.12580  0.22275  0.82683  Biso   1.000  O 
  O4       1.0000 0.87420  0.77725  0.17317  Biso   1.000  O 
  O5       1.0000 0.27971  0.45204  0.51639  Biso   1.000  O 
  O6       1.0000 0.72029  0.54796  0.48361  Biso   1.000  O 
  O7       1.0000 0.09531  0.86195  0.72403  Biso   1.000  O 
  O8       1.0000 0.90469  0.13805  0.27597  Biso   1.000  O 
  O9       1.0000 0.18983  0.59482  0.00904  Biso   1.000  O 
  O10      1.0000 0.81017  0.40518  0.99096  Biso   1.000  O 
  O11      1.0000 0.50427  0.74496  0.69966  Biso   1.000  O 
  O12      1.0000 0.49573  0.25504  0.30034  Biso   1.000  O 
  O13      1.0000 0.73348  0.07494  0.92780  Biso   1.000  O 
  O14      1.0000 0.26652  0.92506  0.07220  Biso   1.000  O 
  O15      1.0000 0.61848  0.20354  0.62488  Biso   1.000  O 
  O16      1.0000 0.38152  0.79646  0.37512  Biso   1.000  O 
  O17      1.0000 0.45817  0.35013  0.86847  Biso   1.000  O 
  O18      1.0000 0.54183  0.64987  0.13153  Biso   1.000  O 
