data_image0
_cell_length_a       6.70926
_cell_length_b       6.70926
_cell_length_c       6.34405
_cell_angle_alpha    90
_cell_angle_beta     90
_cell_angle_gamma    103.491

_symmetry_space_group_name_H-M    "P 1"
_symmetry_int_tables_number       1

loop_
  _symmetry_equiv_pos_as_xyz
  'x, y, z'

loop_
  _atom_site_label
  _atom_site_occupancy
  _atom_site_fract_x
  _atom_site_fract_y
  _atom_site_fract_z
  _atom_site_thermal_displace_type
  _atom_site_B_iso_or_equiv
  _atom_site_type_symbol
  K1       1.0000 0.67826  0.02476  0.49907  Biso   1.000  K 
  K2       1.0000 0.97524  0.32174  0.00093  Biso   1.000  K 
  K3       1.0000 0.32174  0.97524  0.99907  Biso   1.000  K 
  K4       1.0000 0.02476  0.67826  0.50093  Biso   1.000  K 
  Ag1      1.0000 0.50037  0.49963  0.25000  Biso   1.000  Ag
  Ag2      1.0000 0.49963  0.50037  0.75000  Biso   1.000  Ag
  Sb1      1.0000 0.23411  0.23411  0.50000  Biso   1.000  Sb
  Sb2      1.0000 0.76589  0.76589  0.00000  Biso   1.000  Sb
