data_image0
_cell_length_a       12.8911
_cell_length_b       11.5196
_cell_length_c       7.10142
_cell_angle_alpha    84.0534
_cell_angle_beta     62.7228
_cell_angle_gamma    33.2238

_symmetry_space_group_name_H-M    "P 1"
_symmetry_int_tables_number       1

loop_
  _symmetry_equiv_pos_as_xyz
  'x, y, z'

loop_
  _atom_site_label
  _atom_site_occupancy
  _atom_site_fract_x
  _atom_site_fract_y
  _atom_site_fract_z
  _atom_site_thermal_displace_type
  _atom_site_B_iso_or_equiv
  _atom_site_type_symbol
  Ag1      1.0000 0.50000  0.50000  0.50000  Biso   1.000  Ag
  Ag2      1.0000 0.75000  0.75000  0.75000  Biso   1.000  Ag
  V1       1.0000 0.00000  0.00000  0.00000  Biso   1.000  V 
  V2       1.0000 0.25000  0.25000  0.25000  Biso   1.000  V 
  S1       1.0000 0.36423  0.75100  0.83867  Biso   1.000  S 
  S2       1.0000 0.04610  0.83867  0.75100  Biso   1.000  S 
  S3       1.0000 0.83867  0.04610  0.36423  Biso   1.000  S 
  S4       1.0000 0.75100  0.36423  0.04610  Biso   1.000  S 
  S5       1.0000 0.88577  0.49900  0.41133  Biso   1.000  S 
  S6       1.0000 0.20390  0.41133  0.49900  Biso   1.000  S 
  S7       1.0000 0.41133  0.20390  0.88577  Biso   1.000  S 
  S8       1.0000 0.49900  0.88577  0.20390  Biso   1.000  S 
  K1       1.0000 0.43091  0.43091  0.06909  Biso   1.000  K 
  K2       1.0000 0.06909  0.06909  0.43091  Biso   1.000  K 
  K3       1.0000 0.81909  0.81909  0.18091  Biso   1.000  K 
  K4       1.0000 0.18091  0.18091  0.81909  Biso   1.000  K 
