data_image0
_cell_length_a       13.1102
_cell_length_b       11.7041
_cell_length_c       7.23683
_cell_angle_alpha    84.0771
_cell_angle_beta     62.6208
_cell_angle_gamma    33.3022

_symmetry_space_group_name_H-M    "P 1"
_symmetry_int_tables_number       1

loop_
  _symmetry_equiv_pos_as_xyz
  'x, y, z'

loop_
  _atom_site_label
  _atom_site_occupancy
  _atom_site_fract_x
  _atom_site_fract_y
  _atom_site_fract_z
  _atom_site_thermal_displace_type
  _atom_site_B_iso_or_equiv
  _atom_site_type_symbol
  K1       1.0000 0.06937  0.06937  0.43063  Biso   1.000  K 
  K2       1.0000 0.43063  0.43063  0.06937  Biso   1.000  K 
  K3       1.0000 0.18063  0.18063  0.81937  Biso   1.000  K 
  K4       1.0000 0.81937  0.81937  0.18063  Biso   1.000  K 
  Ag1      1.0000 0.75000  0.75000  0.75000  Biso   1.000  Ag
  Ag2      1.0000 0.50000  0.50000  0.50000  Biso   1.000  Ag
  Nb1      1.0000 0.25000  0.25000  0.25000  Biso   1.000  Nb
  Nb2      1.0000 0.00000  0.00000  0.00000  Biso   1.000  Nb
  S1       1.0000 0.73803  0.37975  0.05330  Biso   1.000  S 
  S2       1.0000 0.82893  0.05330  0.37975  Biso   1.000  S 
  S3       1.0000 0.05330  0.82893  0.73803  Biso   1.000  S 
  S4       1.0000 0.37975  0.73803  0.82893  Biso   1.000  S 
  S5       1.0000 0.51197  0.87025  0.19670  Biso   1.000  S 
  S6       1.0000 0.42107  0.19670  0.87025  Biso   1.000  S 
  S7       1.0000 0.19670  0.42107  0.51197  Biso   1.000  S 
  S8       1.0000 0.87025  0.51197  0.42107  Biso   1.000  S 
