data_image0
_cell_length_a       7.59411
_cell_length_b       7.59411
_cell_length_c       7.59411
_cell_angle_alpha    97.7454
_cell_angle_beta     97.7454
_cell_angle_gamma    136.925

_symmetry_space_group_name_H-M    "P 1"
_symmetry_int_tables_number       1

loop_
  _symmetry_equiv_pos_as_xyz
  'x, y, z'

loop_
  _atom_site_label
  _atom_site_occupancy
  _atom_site_fract_x
  _atom_site_fract_y
  _atom_site_fract_z
  _atom_site_thermal_displace_type
  _atom_site_B_iso_or_equiv
  _atom_site_type_symbol
  K1       1.0000 0.43061  0.24979  0.18082  Biso   1.000  K 
  K2       1.0000 0.06897  0.24979  0.81918  Biso   1.000  K 
  K3       1.0000 0.75021  0.93103  0.18082  Biso   1.000  K 
  K4       1.0000 0.75021  0.56939  0.81918  Biso   1.000  K 
  Ag1      1.0000 0.10253  0.89747  0.50000  Biso   1.000  Ag
  Ag2      1.0000 0.39747  0.60253  0.50000  Biso   1.000  Ag
  Ag3      1.0000 0.39747  0.89747  0.79495  Biso   1.000  Ag
  Ag4      1.0000 0.10253  0.60253  0.20505  Biso   1.000  Ag
  O1       1.0000 0.95663  0.74944  0.20718  Biso   1.000  O 
  O2       1.0000 0.54226  0.74944  0.79282  Biso   1.000  O 
  O3       1.0000 0.25056  0.45774  0.20718  Biso   1.000  O 
  O4       1.0000 0.25056  0.04337  0.79282  Biso   1.000  O 
