data_image0
_cell_length_a       7.94986
_cell_length_b       10.3531
_cell_length_c       10.606
_cell_angle_alpha    90
_cell_angle_beta     90
_cell_angle_gamma    90

_symmetry_space_group_name_H-M    "P 1"
_symmetry_int_tables_number       1

loop_
  _symmetry_equiv_pos_as_xyz
  'x, y, z'

loop_
  _atom_site_label
  _atom_site_occupancy
  _atom_site_fract_x
  _atom_site_fract_y
  _atom_site_fract_z
  _atom_site_thermal_displace_type
  _atom_site_B_iso_or_equiv
  _atom_site_type_symbol
  K1       1.0000 0.27026  0.50000  0.00000  Biso   1.000  K 
  K2       1.0000 0.77026  0.00000  0.50000  Biso   1.000  K 
  K3       1.0000 0.94866  0.50000  0.50000  Biso   1.000  K 
  K4       1.0000 0.44866  0.00000  0.00000  Biso   1.000  K 
  K5       1.0000 0.44596  0.75302  0.27180  Biso   1.000  K 
  K6       1.0000 0.44596  0.24698  0.72820  Biso   1.000  K 
  K7       1.0000 0.94596  0.74698  0.77180  Biso   1.000  K 
  K8       1.0000 0.94596  0.25302  0.22820  Biso   1.000  K 
  Ag1      1.0000 0.45720  0.50000  0.50000  Biso   1.000  Ag
  Ag2      1.0000 0.95720  0.00000  0.00000  Biso   1.000  Ag
  Ag3      1.0000 0.73491  0.50000  0.00000  Biso   1.000  Ag
  Ag4      1.0000 0.23491  0.00000  0.50000  Biso   1.000  Ag
  Sb1      1.0000 0.94714  0.22576  0.77609  Biso   1.000  Sb
  Sb2      1.0000 0.94714  0.77424  0.22391  Biso   1.000  Sb
  Sb3      1.0000 0.44714  0.27424  0.27609  Biso   1.000  Sb
  Sb4      1.0000 0.44714  0.72576  0.72391  Biso   1.000  Sb
  S1       1.0000 0.76588  0.04437  0.79897  Biso   1.000  S 
  S2       1.0000 0.76588  0.95563  0.20103  Biso   1.000  S 
  S3       1.0000 0.26588  0.45563  0.29897  Biso   1.000  S 
  S4       1.0000 0.26588  0.54437  0.70103  Biso   1.000  S 
  S5       1.0000 0.13580  0.21014  0.94907  Biso   1.000  S 
  S6       1.0000 0.13580  0.78986  0.05093  Biso   1.000  S 
  S7       1.0000 0.63580  0.28986  0.44907  Biso   1.000  S 
  S8       1.0000 0.63580  0.71014  0.55093  Biso   1.000  S 
  S9       1.0000 0.79392  0.42288  0.78162  Biso   1.000  S 
  S10      1.0000 0.79392  0.57712  0.21838  Biso   1.000  S 
  S11      1.0000 0.29392  0.07712  0.28162  Biso   1.000  S 
  S12      1.0000 0.29392  0.92288  0.71838  Biso   1.000  S 
  S13      1.0000 0.08398  0.21501  0.57821  Biso   1.000  S 
  S14      1.0000 0.08398  0.78499  0.42179  Biso   1.000  S 
  S15      1.0000 0.58398  0.28499  0.07821  Biso   1.000  S 
  S16      1.0000 0.58398  0.71501  0.92179  Biso   1.000  S 
