data_image0
_cell_length_a       8.32776
_cell_length_b       8.32776
_cell_length_c       13.6552
_cell_angle_alpha    90
_cell_angle_beta     90
_cell_angle_gamma    90

_symmetry_space_group_name_H-M    "P 1"
_symmetry_int_tables_number       1

loop_
  _symmetry_equiv_pos_as_xyz
  'x, y, z'

loop_
  _atom_site_label
  _atom_site_occupancy
  _atom_site_fract_x
  _atom_site_fract_y
  _atom_site_fract_z
  _atom_site_thermal_displace_type
  _atom_site_B_iso_or_equiv
  _atom_site_type_symbol
  K1       1.0000 0.50000  0.50000  0.27425  Biso   1.000  K 
  K2       1.0000 0.00000  0.00000  0.27425  Biso   1.000  K 
  K3       1.0000 0.00000  0.00000  0.72575  Biso   1.000  K 
  K4       1.0000 0.50000  0.50000  0.72575  Biso   1.000  K 
  K5       1.0000 0.50000  0.50000  0.00000  Biso   1.000  K 
  K6       1.0000 0.00000  0.00000  0.00000  Biso   1.000  K 
  Se1      1.0000 0.17739  0.32261  0.13769  Biso   1.000  Se
  Se2      1.0000 0.67739  0.17739  0.13769  Biso   1.000  Se
  Se3      1.0000 0.32261  0.82261  0.13769  Biso   1.000  Se
  Se4      1.0000 0.82261  0.67739  0.13769  Biso   1.000  Se
  Se5      1.0000 0.32261  0.17739  0.86231  Biso   1.000  Se
  Se6      1.0000 0.82261  0.32261  0.86231  Biso   1.000  Se
  Se7      1.0000 0.17739  0.67739  0.86231  Biso   1.000  Se
  Se8      1.0000 0.67739  0.82261  0.86231  Biso   1.000  Se
  Se9      1.0000 0.83603  0.33603  0.37452  Biso   1.000  Se
  Se10     1.0000 0.33603  0.16397  0.37452  Biso   1.000  Se
  Se11     1.0000 0.66397  0.83603  0.37452  Biso   1.000  Se
  Se12     1.0000 0.16397  0.66397  0.37452  Biso   1.000  Se
  Se13     1.0000 0.66397  0.16397  0.62548  Biso   1.000  Se
  Se14     1.0000 0.16397  0.33603  0.62548  Biso   1.000  Se
  Se15     1.0000 0.83603  0.66397  0.62548  Biso   1.000  Se
  Se16     1.0000 0.33603  0.83603  0.62548  Biso   1.000  Se
  Sn1      1.0000 0.00000  0.50000  0.50000  Biso   1.000  Sn
  Sn2      1.0000 0.50000  0.00000  0.50000  Biso   1.000  Sn
  Sn3      1.0000 0.00000  0.50000  0.24075  Biso   1.000  Sn
  Sn4      1.0000 0.50000  0.00000  0.24075  Biso   1.000  Sn
  Sn5      1.0000 0.50000  0.00000  0.75925  Biso   1.000  Sn
  Sn6      1.0000 0.00000  0.50000  0.75925  Biso   1.000  Sn
  Ag1      1.0000 0.00000  0.50000  0.00000  Biso   1.000  Ag
  Ag2      1.0000 0.50000  0.00000  0.00000  Biso   1.000  Ag
