data_image0
_cell_length_a       5.03306
_cell_length_b       8.35399
_cell_length_c       14.2764
_cell_angle_alpha    81.7585
_cell_angle_beta     90
_cell_angle_gamma    90

_symmetry_space_group_name_H-M    "P 1"
_symmetry_int_tables_number       1

loop_
  _symmetry_equiv_pos_as_xyz
  'x, y, z'

loop_
  _atom_site_label
  _atom_site_occupancy
  _atom_site_fract_x
  _atom_site_fract_y
  _atom_site_fract_z
  _atom_site_thermal_displace_type
  _atom_site_B_iso_or_equiv
  _atom_site_type_symbol
  Ag1      1.0000 0.91892  0.19469  0.21730  Biso   1.000  Ag
  Ag2      1.0000 0.41892  0.80531  0.28270  Biso   1.000  Ag
  Ag3      1.0000 0.08108  0.80531  0.78270  Biso   1.000  Ag
  Ag4      1.0000 0.58108  0.19469  0.71730  Biso   1.000  Ag
  K1       1.0000 0.45267  0.26456  0.43506  Biso   1.000  K 
  K2       1.0000 0.95267  0.73544  0.06494  Biso   1.000  K 
  K3       1.0000 0.54733  0.73544  0.56494  Biso   1.000  K 
  K4       1.0000 0.04733  0.26456  0.93506  Biso   1.000  K 
  N1       1.0000 0.95254  0.93856  0.39913  Biso   1.000  N 
  N2       1.0000 0.45254  0.06144  0.10087  Biso   1.000  N 
  N3       1.0000 0.04746  0.06144  0.60087  Biso   1.000  N 
  N4       1.0000 0.54746  0.93856  0.89913  Biso   1.000  N 
  N5       1.0000 0.86143  0.56082  0.33550  Biso   1.000  N 
  N6       1.0000 0.36143  0.43918  0.16450  Biso   1.000  N 
  N7       1.0000 0.13857  0.43918  0.66450  Biso   1.000  N 
  N8       1.0000 0.63857  0.56082  0.83550  Biso   1.000  N 
  O1       1.0000 0.11974  0.01140  0.33879  Biso   1.000  O 
  O2       1.0000 0.61974  0.98860  0.16121  Biso   1.000  O 
  O3       1.0000 0.88026  0.98860  0.66121  Biso   1.000  O 
  O4       1.0000 0.38026  0.01140  0.83879  Biso   1.000  O 
  O5       1.0000 0.71010  0.97859  0.39312  Biso   1.000  O 
  O6       1.0000 0.21010  0.02141  0.10688  Biso   1.000  O 
  O7       1.0000 0.28990  0.02141  0.60688  Biso   1.000  O 
  O8       1.0000 0.78990  0.97859  0.89312  Biso   1.000  O 
  O9       1.0000 0.03291  0.82821  0.46176  Biso   1.000  O 
  O10      1.0000 0.53291  0.17179  0.03824  Biso   1.000  O 
  O11      1.0000 0.96709  0.17179  0.53824  Biso   1.000  O 
  O12      1.0000 0.46709  0.82821  0.96176  Biso   1.000  O 
  O13      1.0000 0.63107  0.58400  0.37094  Biso   1.000  O 
  O14      1.0000 0.13107  0.41600  0.12906  Biso   1.000  O 
  O15      1.0000 0.36893  0.41600  0.62906  Biso   1.000  O 
  O16      1.0000 0.86893  0.58400  0.87094  Biso   1.000  O 
  O17      1.0000 0.96318  0.67209  0.27683  Biso   1.000  O 
  O18      1.0000 0.46317  0.32791  0.22317  Biso   1.000  O 
  O19      1.0000 0.03683  0.32791  0.72317  Biso   1.000  O 
  O20      1.0000 0.53683  0.67209  0.77683  Biso   1.000  O 
  O21      1.0000 0.97563  0.42774  0.35982  Biso   1.000  O 
  O22      1.0000 0.47563  0.57226  0.14018  Biso   1.000  O 
  O23      1.0000 0.02437  0.57226  0.64018  Biso   1.000  O 
  O24      1.0000 0.52437  0.42774  0.85982  Biso   1.000  O 
