data_image0
_cell_length_a       13.3054
_cell_length_b       6.10135
_cell_length_c       7.58395
_cell_angle_alpha    85.523
_cell_angle_beta     90
_cell_angle_gamma    90

_symmetry_space_group_name_H-M    "P 1"
_symmetry_int_tables_number       1

loop_
  _symmetry_equiv_pos_as_xyz
  'x, y, z'

loop_
  _atom_site_label
  _atom_site_occupancy
  _atom_site_fract_x
  _atom_site_fract_y
  _atom_site_fract_z
  _atom_site_thermal_displace_type
  _atom_site_B_iso_or_equiv
  _atom_site_type_symbol
  Ag1      1.0000 0.52811  0.81218  0.80309  Biso   1.000  Ag
  Ag2      1.0000 0.02811  0.18782  0.69691  Biso   1.000  Ag
  Ag3      1.0000 0.47189  0.18782  0.19691  Biso   1.000  Ag
  Ag4      1.0000 0.97189  0.81218  0.30309  Biso   1.000  Ag
  K1       1.0000 0.83006  0.70334  0.73252  Biso   1.000  K 
  K2       1.0000 0.33006  0.29666  0.76748  Biso   1.000  K 
  K3       1.0000 0.16994  0.29666  0.26748  Biso   1.000  K 
  K4       1.0000 0.66994  0.70334  0.23252  Biso   1.000  K 
  P1       1.0000 0.63128  0.31351  0.84922  Biso   1.000  P 
  P2       1.0000 0.13128  0.68649  0.65078  Biso   1.000  P 
  P3       1.0000 0.36872  0.68649  0.15078  Biso   1.000  P 
  P4       1.0000 0.86872  0.31351  0.34922  Biso   1.000  P 
  P5       1.0000 0.82678  0.15180  0.99361  Biso   1.000  P 
  P6       1.0000 0.32678  0.84820  0.50639  Biso   1.000  P 
  P7       1.0000 0.17322  0.84820  0.00639  Biso   1.000  P 
  P8       1.0000 0.67322  0.15180  0.49361  Biso   1.000  P 
  O1       1.0000 0.47179  0.78755  0.13604  Biso   1.000  O 
  O2       1.0000 0.97179  0.21245  0.36396  Biso   1.000  O 
  O3       1.0000 0.52821  0.21245  0.86396  Biso   1.000  O 
  O4       1.0000 0.02821  0.78755  0.63604  Biso   1.000  O 
  O5       1.0000 0.84951  0.54003  0.40684  Biso   1.000  O 
  O6       1.0000 0.34951  0.45997  0.09316  Biso   1.000  O 
  O7       1.0000 0.15049  0.45997  0.59316  Biso   1.000  O 
  O8       1.0000 0.65049  0.54003  0.90684  Biso   1.000  O 
  O9       1.0000 0.79374  0.13764  0.45373  Biso   1.000  O 
  O10      1.0000 0.29374  0.86236  0.04627  Biso   1.000  O 
  O11      1.0000 0.20626  0.86236  0.54627  Biso   1.000  O 
  O12      1.0000 0.70626  0.13764  0.95373  Biso   1.000  O 
  O13      1.0000 0.67071  0.32331  0.64637  Biso   1.000  O 
  O14      1.0000 0.17071  0.67669  0.85363  Biso   1.000  O 
  O15      1.0000 0.32929  0.67669  0.35363  Biso   1.000  O 
  O16      1.0000 0.82929  0.32331  0.14637  Biso   1.000  O 
  O17      1.0000 0.87748  0.26335  0.83420  Biso   1.000  O 
  O18      1.0000 0.37748  0.73665  0.66580  Biso   1.000  O 
  O19      1.0000 0.12252  0.73665  0.16580  Biso   1.000  O 
  O20      1.0000 0.62252  0.26335  0.33420  Biso   1.000  O 
  O21      1.0000 0.85393  0.92256  0.06290  Biso   1.000  O 
  O22      1.0000 0.35393  0.07744  0.43710  Biso   1.000  O 
  O23      1.0000 0.14607  0.07744  0.93710  Biso   1.000  O 
  O24      1.0000 0.64607  0.92256  0.56290  Biso   1.000  O 
