data_image0
_cell_length_a       6.25665
_cell_length_b       6.25665
_cell_length_c       6.01769
_cell_angle_alpha    90
_cell_angle_beta     90
_cell_angle_gamma    75.8279

_symmetry_space_group_name_H-M    "P 1"
_symmetry_int_tables_number       1

loop_
  _symmetry_equiv_pos_as_xyz
  'x, y, z'

loop_
  _atom_site_label
  _atom_site_occupancy
  _atom_site_fract_x
  _atom_site_fract_y
  _atom_site_fract_z
  _atom_site_thermal_displace_type
  _atom_site_B_iso_or_equiv
  _atom_site_type_symbol
  K1       1.0000 0.03215  0.31098  0.25000  Biso   1.000  K 
  K2       1.0000 0.31098  0.03215  0.75000  Biso   1.000  K 
  K3       1.0000 0.96785  0.68902  0.75000  Biso   1.000  K 
  K4       1.0000 0.68902  0.96785  0.25000  Biso   1.000  K 
  Ag1      1.0000 0.50000  0.50000  0.50000  Biso   1.000  Ag
  Ag2      1.0000 0.50000  0.50000  0.00000  Biso   1.000  Ag
  P1       1.0000 0.24766  0.75234  0.25000  Biso   1.000  P 
  P2       1.0000 0.75234  0.24766  0.75000  Biso   1.000  P 
