data_image0
_cell_length_a       7.59681
_cell_length_b       7.59681
_cell_length_c       7.59681
_cell_angle_alpha    97.7171
_cell_angle_beta     97.7171
_cell_angle_gamma    137.007

_symmetry_space_group_name_H-M    "P 1"
_symmetry_int_tables_number       1

loop_
  _symmetry_equiv_pos_as_xyz
  'x, y, z'

loop_
  _atom_site_label
  _atom_site_occupancy
  _atom_site_fract_x
  _atom_site_fract_y
  _atom_site_fract_z
  _atom_site_thermal_displace_type
  _atom_site_B_iso_or_equiv
  _atom_site_type_symbol
  K1       1.0000 0.43057  0.25022  0.18129  Biso   1.000  K 
  K2       1.0000 0.06894  0.24928  0.81872  Biso   1.000  K 
  K3       1.0000 0.75072  0.56943  0.81966  Biso   1.000  K 
  K4       1.0000 0.74978  0.93106  0.18034  Biso   1.000  K 
  Ag1      1.0000 0.10220  0.60297  0.20516  Biso   1.000  Ag
  Ag2      1.0000 0.39781  0.89704  0.79484  Biso   1.000  Ag
  Ag3      1.0000 0.10296  0.89780  0.50077  Biso   1.000  Ag
  Ag4      1.0000 0.39703  0.60219  0.49923  Biso   1.000  Ag
  O1       1.0000 0.95753  0.75099  0.20810  Biso   1.000  O 
  O2       1.0000 0.54289  0.74944  0.79190  Biso   1.000  O 
  O3       1.0000 0.25056  0.04247  0.79345  Biso   1.000  O 
  O4       1.0000 0.24901  0.45711  0.20655  Biso   1.000  O 
