data_image0
_cell_length_a       6.11243
_cell_length_b       10.4162
_cell_length_c       10.4161
_cell_angle_alpha    60
_cell_angle_beta     90
_cell_angle_gamma    90

_symmetry_space_group_name_H-M    "P 1"
_symmetry_int_tables_number       1

loop_
  _symmetry_equiv_pos_as_xyz
  'x, y, z'

loop_
  _atom_site_label
  _atom_site_occupancy
  _atom_site_fract_x
  _atom_site_fract_y
  _atom_site_fract_z
  _atom_site_thermal_displace_type
  _atom_site_B_iso_or_equiv
  _atom_site_type_symbol
  La1      1.0000 0.58240  0.13452  0.22529  Biso   1.000  La
  La2      1.0000 0.58240  0.22529  0.64019  Biso   1.000  La
  La3      1.0000 0.58240  0.64019  0.13452  Biso   1.000  La
  La4      1.0000 0.08240  0.86548  0.77471  Biso   1.000  La
  La5      1.0000 0.08240  0.77471  0.35981  Biso   1.000  La
  La6      1.0000 0.08240  0.35981  0.86548  Biso   1.000  La
  Sn1      1.0000 0.16053  0.33333  0.33334  Biso   1.000  Sn
  Sn2      1.0000 0.66053  0.66667  0.66666  Biso   1.000  Sn
  Ag1      1.0000 0.50228  1.00000  0.00000  Biso   1.000  Ag
  Ag2      1.0000 0.00228  0.00000  1.00000  Biso   1.000  Ag
  S1       1.0000 0.54668  0.26845  0.89667  Biso   1.000  S 
  S2       1.0000 0.54668  0.89667  0.83488  Biso   1.000  S 
  S3       1.0000 0.54668  0.83488  0.26845  Biso   1.000  S 
  S4       1.0000 0.04668  0.73155  0.10333  Biso   1.000  S 
  S5       1.0000 0.04668  0.10333  0.16512  Biso   1.000  S 
  S6       1.0000 0.04668  0.16512  0.73155  Biso   1.000  S 
  S7       1.0000 0.83353  0.51600  0.57643  Biso   1.000  S 
  S8       1.0000 0.83353  0.57644  0.90757  Biso   1.000  S 
  S9       1.0000 0.83354  0.90757  0.51600  Biso   1.000  S 
  S10      1.0000 0.33353  0.48400  0.42357  Biso   1.000  S 
  S11      1.0000 0.33353  0.42356  0.09243  Biso   1.000  S 
  S12      1.0000 0.33354  0.09243  0.48400  Biso   1.000  S 
  S13      1.0000 0.76964  0.33333  0.33333  Biso   1.000  S 
  S14      1.0000 0.26964  0.66667  0.66667  Biso   1.000  S 
