data_image0
_cell_length_a       10.4857
_cell_length_b       10.4857
_cell_length_c       5.81308
_cell_angle_alpha    90
_cell_angle_beta     90
_cell_angle_gamma    120

_symmetry_space_group_name_H-M    "P 1"
_symmetry_int_tables_number       1

loop_
  _symmetry_equiv_pos_as_xyz
  'x, y, z'

loop_
  _atom_site_label
  _atom_site_occupancy
  _atom_site_fract_x
  _atom_site_fract_y
  _atom_site_fract_z
  _atom_site_thermal_displace_type
  _atom_site_B_iso_or_equiv
  _atom_site_type_symbol
  La1      1.0000 0.76393  0.12429  0.61600  Biso   1.000  La
  La2      1.0000 0.36035  0.23607  0.61600  Biso   1.000  La
  La3      1.0000 0.87571  0.63965  0.61600  Biso   1.000  La
  La4      1.0000 0.23607  0.87571  0.11600  Biso   1.000  La
  La5      1.0000 0.63965  0.76393  0.11600  Biso   1.000  La
  La6      1.0000 0.12429  0.36035  0.11600  Biso   1.000  La
  Ag1      1.0000 0.00000  0.00000  0.57191  Biso   1.000  Ag
  Ag2      1.0000 0.00000  0.00000  0.07191  Biso   1.000  Ag
  S1       1.0000 0.08836  0.26415  0.59856  Biso   1.000  S 
  S2       1.0000 0.17580  0.91164  0.59856  Biso   1.000  S 
  S3       1.0000 0.73585  0.82420  0.59856  Biso   1.000  S 
  S4       1.0000 0.91164  0.73585  0.09856  Biso   1.000  S 
  S5       1.0000 0.82420  0.08836  0.09856  Biso   1.000  S 
  S6       1.0000 0.26415  0.17580  0.09856  Biso   1.000  S 
  S7       1.0000 0.40785  0.52560  0.85132  Biso   1.000  S 
  S8       1.0000 0.11775  0.59215  0.85132  Biso   1.000  S 
  S9       1.0000 0.47440  0.88225  0.85132  Biso   1.000  S 
  S10      1.0000 0.59215  0.47440  0.35132  Biso   1.000  S 
  S11      1.0000 0.88225  0.40785  0.35132  Biso   1.000  S 
  S12      1.0000 0.52560  0.11775  0.35132  Biso   1.000  S 
  S13      1.0000 0.66667  0.33333  0.84472  Biso   1.000  S 
  S14      1.0000 0.33333  0.66667  0.34472  Biso   1.000  S 
  Si1      1.0000 0.66667  0.33333  0.20883  Biso   1.000  Si
  Si2      1.0000 0.33333  0.66667  0.70883  Biso   1.000  Si
