data_image0
_cell_length_a       4.20813
_cell_length_b       6.73263
_cell_length_c       13.5948
_cell_angle_alpha    90
_cell_angle_beta     90
_cell_angle_gamma    90

_symmetry_space_group_name_H-M    "P 1"
_symmetry_int_tables_number       1

loop_
  _symmetry_equiv_pos_as_xyz
  'x, y, z'

loop_
  _atom_site_label
  _atom_site_occupancy
  _atom_site_fract_x
  _atom_site_fract_y
  _atom_site_fract_z
  _atom_site_thermal_displace_type
  _atom_site_B_iso_or_equiv
  _atom_site_type_symbol
  Ag1      1.0000 0.50203  0.70313  0.87327  Biso   1.000  Ag
  Ag2      1.0000 0.00203  0.79687  0.12673  Biso   1.000  Ag
  Ag3      1.0000 0.49797  0.20313  0.62673  Biso   1.000  Ag
  Ag4      1.0000 0.99797  0.29687  0.37327  Biso   1.000  Ag
  Lu1      1.0000 0.28125  0.70815  0.62749  Biso   1.000  Lu
  Lu2      1.0000 0.78125  0.79185  0.37251  Biso   1.000  Lu
  Lu3      1.0000 0.71875  0.20815  0.87251  Biso   1.000  Lu
  Lu4      1.0000 0.21875  0.29185  0.12749  Biso   1.000  Lu
  Se1      1.0000 0.78232  0.91012  0.72720  Biso   1.000  Se
  Se2      1.0000 0.28232  0.58988  0.27280  Biso   1.000  Se
  Se3      1.0000 0.21768  0.41012  0.77280  Biso   1.000  Se
  Se4      1.0000 0.71768  0.08988  0.22720  Biso   1.000  Se
  Se5      1.0000 0.77395  0.51207  0.52773  Biso   1.000  Se
  Se6      1.0000 0.27395  0.98793  0.47227  Biso   1.000  Se
  Se7      1.0000 0.22605  0.01207  0.97227  Biso   1.000  Se
  Se8      1.0000 0.72605  0.48793  0.02773  Biso   1.000  Se
