data_image0
_cell_length_a       5.40482
_cell_length_b       6.86878
_cell_length_c       9.70697
_cell_angle_alpha    90
_cell_angle_beta     90
_cell_angle_gamma    90

_symmetry_space_group_name_H-M    "P 1"
_symmetry_int_tables_number       1

loop_
  _symmetry_equiv_pos_as_xyz
  'x, y, z'

loop_
  _atom_site_label
  _atom_site_occupancy
  _atom_site_fract_x
  _atom_site_fract_y
  _atom_site_fract_z
  _atom_site_thermal_displace_type
  _atom_site_B_iso_or_equiv
  _atom_site_type_symbol
  Ag1      1.0000 0.00148  0.75000  0.34992  Biso   1.000  Ag
  Ag2      1.0000 0.49852  0.75000  0.84992  Biso   1.000  Ag
  Ag3      1.0000 0.50148  0.25000  0.15008  Biso   1.000  Ag
  Ag4      1.0000 0.99852  0.25000  0.65008  Biso   1.000  Ag
  Mn1      1.0000 0.50000  0.50000  0.50000  Biso   1.000  Mn
  Mn2      1.0000 0.00000  0.50000  0.00000  Biso   1.000  Mn
  Mn3      1.0000 0.50000  0.00000  0.50000  Biso   1.000  Mn
  Mn4      1.0000 0.00000  0.00000  0.00000  Biso   1.000  Mn
  V1       1.0000 0.01798  0.75000  0.67897  Biso   1.000  V 
  V2       1.0000 0.48202  0.75000  0.17897  Biso   1.000  V 
  V3       1.0000 0.51798  0.25000  0.82103  Biso   1.000  V 
  V4       1.0000 0.98202  0.25000  0.32103  Biso   1.000  V 
  O1       1.0000 0.06082  0.75000  0.86294  Biso   1.000  O 
  O2       1.0000 0.43918  0.75000  0.36294  Biso   1.000  O 
  O3       1.0000 0.56082  0.25000  0.63706  Biso   1.000  O 
  O4       1.0000 0.93918  0.25000  0.13706  Biso   1.000  O 
  O5       1.0000 0.70898  0.75000  0.61858  Biso   1.000  O 
  O6       1.0000 0.79102  0.75000  0.11858  Biso   1.000  O 
  O7       1.0000 0.20898  0.25000  0.88142  Biso   1.000  O 
  O8       1.0000 0.29102  0.25000  0.38142  Biso   1.000  O 
  O9       1.0000 0.17446  0.55050  0.61575  Biso   1.000  O 
  O10      1.0000 0.32554  0.55050  0.11575  Biso   1.000  O 
  O11      1.0000 0.17446  0.94950  0.61575  Biso   1.000  O 
  O12      1.0000 0.67446  0.05050  0.88425  Biso   1.000  O 
  O13      1.0000 0.82554  0.44950  0.38425  Biso   1.000  O 
  O14      1.0000 0.67446  0.44950  0.88425  Biso   1.000  O 
  O15      1.0000 0.82554  0.05050  0.38425  Biso   1.000  O 
  O16      1.0000 0.32554  0.94950  0.11575  Biso   1.000  O 
