data_image0
_cell_length_a       9.10554
_cell_length_b       9.10554
_cell_length_c       9.10554
_cell_angle_alpha    119.134
_cell_angle_beta     119.134
_cell_angle_gamma    91.5064

_symmetry_space_group_name_H-M    "P 1"
_symmetry_int_tables_number       1

loop_
  _symmetry_equiv_pos_as_xyz
  'x, y, z'

loop_
  _atom_site_label
  _atom_site_occupancy
  _atom_site_fract_x
  _atom_site_fract_y
  _atom_site_fract_z
  _atom_site_thermal_displace_type
  _atom_site_B_iso_or_equiv
  _atom_site_type_symbol
  Mg1      1.0000 0.35843  0.66031  0.24889  Biso   1.000  Mg
  Mg2      1.0000 0.41142  0.10954  0.75111  Biso   1.000  Mg
  Mg3      1.0000 0.91142  0.16031  0.30188  Biso   1.000  Mg
  Mg4      1.0000 0.85843  0.60954  0.69812  Biso   1.000  Mg
  Mg5      1.0000 0.33969  0.58858  0.69812  Biso   1.000  Mg
  Mg6      1.0000 0.89046  0.64157  0.30188  Biso   1.000  Mg
  Mg7      1.0000 0.83969  0.14157  0.75111  Biso   1.000  Mg
  Mg8      1.0000 0.39046  0.08858  0.24889  Biso   1.000  Mg
  Ag1      1.0000 0.25000  0.25000  0.00000  Biso   1.000  Ag
  Ag2      1.0000 0.75000  0.75000  0.00000  Biso   1.000  Ag
  Ag3      1.0000 0.50000  0.50000  0.00000  Biso   1.000  Ag
  Ag4      1.0000 0.00000  0.00000  0.00000  Biso   1.000  Ag
  Ag5      1.0000 0.47212  0.47212  0.44423  Biso   1.000  Ag
  Ag6      1.0000 0.02788  0.02788  0.55577  Biso   1.000  Ag
  Ag7      1.0000 0.52788  0.97212  0.00000  Biso   1.000  Ag
  Ag8      1.0000 0.97212  0.52788  0.00000  Biso   1.000  Ag
  Sb1      1.0000 0.61565  0.85997  0.70613  Biso   1.000  Sb
  Sb2      1.0000 0.15383  0.90952  0.29387  Biso   1.000  Sb
  Sb3      1.0000 0.65383  0.35997  0.24431  Biso   1.000  Sb
  Sb4      1.0000 0.11565  0.40952  0.75569  Biso   1.000  Sb
  Sb5      1.0000 0.14003  0.84617  0.75569  Biso   1.000  Sb
  Sb6      1.0000 0.09048  0.38435  0.24431  Biso   1.000  Sb
  Sb7      1.0000 0.64003  0.88435  0.29387  Biso   1.000  Sb
  Sb8      1.0000 0.59048  0.34617  0.70613  Biso   1.000  Sb
