data_image0
_cell_length_a       5.84675
_cell_length_b       9.77492
_cell_length_c       13.3297
_cell_angle_alpha    74.9348
_cell_angle_beta     77.9349
_cell_angle_gamma    79.8341

_symmetry_space_group_name_H-M    "P 1"
_symmetry_int_tables_number       1

loop_
  _symmetry_equiv_pos_as_xyz
  'x, y, z'

loop_
  _atom_site_label
  _atom_site_occupancy
  _atom_site_fract_x
  _atom_site_fract_y
  _atom_site_fract_z
  _atom_site_thermal_displace_type
  _atom_site_B_iso_or_equiv
  _atom_site_type_symbol
  Ag1      1.0000 0.69722  0.87297  0.68964  Biso   1.000  Ag
  Ag2      1.0000 0.69722  0.87297  0.18964  Biso   1.000  Ag
  Ag3      1.0000 0.30278  0.12703  0.81036  Biso   1.000  Ag
  Ag4      1.0000 0.30278  0.12703  0.31036  Biso   1.000  Ag
  Ag5      1.0000 0.17772  0.76141  0.73748  Biso   1.000  Ag
  Ag6      1.0000 0.17772  0.76141  0.23748  Biso   1.000  Ag
  Ag7      1.0000 0.82228  0.23859  0.76252  Biso   1.000  Ag
  Ag8      1.0000 0.82228  0.23859  0.26252  Biso   1.000  Ag
  Mn1      1.0000 0.77980  0.56886  0.58476  Biso   1.000  Mn
  Mn2      1.0000 0.22020  0.43114  0.41524  Biso   1.000  Mn
  Mn3      1.0000 0.77980  0.56886  0.08476  Biso   1.000  Mn
  Mn4      1.0000 0.22020  0.43114  0.91524  Biso   1.000  Mn
  Mn5      1.0000 0.34309  0.78840  0.96659  Biso   1.000  Mn
  Mn6      1.0000 0.65691  0.21160  0.03341  Biso   1.000  Mn
  Mn7      1.0000 0.34309  0.78840  0.46659  Biso   1.000  Mn
  Mn8      1.0000 0.65691  0.21160  0.53341  Biso   1.000  Mn
  P1       1.0000 0.68765  0.53300  0.85564  Biso   1.000  P 
  P2       1.0000 0.68765  0.53300  0.35564  Biso   1.000  P 
  P3       1.0000 0.31235  0.46700  0.64436  Biso   1.000  P 
  P4       1.0000 0.31235  0.46700  0.14436  Biso   1.000  P 
  P5       1.0000 0.81247  0.90867  0.92630  Biso   1.000  P 
  P6       1.0000 0.81247  0.90867  0.42630  Biso   1.000  P 
  P7       1.0000 0.18753  0.09133  0.57370  Biso   1.000  P 
  P8       1.0000 0.18753  0.09133  0.07370  Biso   1.000  P 
  O1       1.0000 0.86740  0.55243  0.92036  Biso   1.000  O 
  O2       1.0000 0.86740  0.55243  0.42036  Biso   1.000  O 
  O3       1.0000 0.13260  0.44757  0.57964  Biso   1.000  O 
  O4       1.0000 0.13260  0.44757  0.07964  Biso   1.000  O 
  O5       1.0000 0.65325  0.37021  0.88226  Biso   1.000  O 
  O6       1.0000 0.65325  0.37021  0.38226  Biso   1.000  O 
  O7       1.0000 0.34675  0.62979  0.61774  Biso   1.000  O 
  O8       1.0000 0.34675  0.62979  0.11774  Biso   1.000  O 
  O9       1.0000 0.76877  0.59073  0.73769  Biso   1.000  O 
  O10      1.0000 0.76877  0.59072  0.23769  Biso   1.000  O 
  O11      1.0000 0.23123  0.40928  0.76231  Biso   1.000  O 
  O12      1.0000 0.23123  0.40928  0.26231  Biso   1.000  O 
  O13      1.0000 0.43606  0.60890  0.89282  Biso   1.000  O 
  O14      1.0000 0.43606  0.60890  0.39282  Biso   1.000  O 
  O15      1.0000 0.56394  0.39110  0.60718  Biso   1.000  O 
  O16      1.0000 0.56394  0.39110  0.10718  Biso   1.000  O 
  O17      1.0000 0.76297  0.80030  0.53552  Biso   1.000  O 
  O18      1.0000 0.76297  0.80030  0.03552  Biso   1.000  O 
  O19      1.0000 0.23703  0.19970  0.96448  Biso   1.000  O 
  O20      1.0000 0.23703  0.19970  0.46448  Biso   1.000  O 
  O21      1.0000 0.78068  0.06258  0.93960  Biso   1.000  O 
  O22      1.0000 0.78068  0.06258  0.43960  Biso   1.000  O 
  O23      1.0000 0.21932  0.93742  0.56040  Biso   1.000  O 
  O24      1.0000 0.21932  0.93742  0.06040  Biso   1.000  O 
  O25      1.0000 0.07103  0.86920  0.87126  Biso   1.000  O 
  O26      1.0000 0.07103  0.86920  0.37126  Biso   1.000  O 
  O27      1.0000 0.92897  0.13080  0.62874  Biso   1.000  O 
  O28      1.0000 0.92897  0.13080  0.12874  Biso   1.000  O 
  O29      1.0000 0.63000  0.89324  0.85975  Biso   1.000  O 
  O30      1.0000 0.63000  0.89324  0.35975  Biso   1.000  O 
  O31      1.0000 0.37000  0.10676  0.64025  Biso   1.000  O 
  O32      1.0000 0.37000  0.10676  0.14025  Biso   1.000  O 
