data_image0
_cell_length_a       7.37866
_cell_length_b       5.94304
_cell_length_c       9.77849
_cell_angle_alpha    52.4495
_cell_angle_beta     90
_cell_angle_gamma    90

_symmetry_space_group_name_H-M    "P 1"
_symmetry_int_tables_number       1

loop_
  _symmetry_equiv_pos_as_xyz
  'x, y, z'

loop_
  _atom_site_label
  _atom_site_occupancy
  _atom_site_fract_x
  _atom_site_fract_y
  _atom_site_fract_z
  _atom_site_thermal_displace_type
  _atom_site_B_iso_or_equiv
  _atom_site_type_symbol
  Ag1      1.0000 0.24774  0.99803  0.75196  Biso   1.000  Ag
  Ag2      1.0000 0.25226  0.99803  0.25196  Biso   1.000  Ag
  Ag3      1.0000 0.75226  0.00197  0.24804  Biso   1.000  Ag
  Ag4      1.0000 0.74774  0.00197  0.74804  Biso   1.000  Ag
  Mn1      1.0000 0.50142  0.59838  0.15015  Biso   1.000  Mn
  Mn2      1.0000 0.99858  0.59838  0.65015  Biso   1.000  Mn
  Mn3      1.0000 0.49858  0.40162  0.84985  Biso   1.000  Mn
  Mn4      1.0000 0.00142  0.40162  0.34985  Biso   1.000  Mn
  O1       1.0000 0.68078  0.72434  0.02631  Biso   1.000  O 
  O2       1.0000 0.81922  0.72434  0.52631  Biso   1.000  O 
  O3       1.0000 0.31922  0.27566  0.97369  Biso   1.000  O 
  O4       1.0000 0.18078  0.27566  0.47369  Biso   1.000  O 
  O5       1.0000 0.32045  0.72171  0.02855  Biso   1.000  O 
  O6       1.0000 0.17955  0.72171  0.52855  Biso   1.000  O 
  O7       1.0000 0.67955  0.27829  0.97145  Biso   1.000  O 
  O8       1.0000 0.82045  0.27829  0.47145  Biso   1.000  O 
  O9       1.0000 0.50209  0.24977  0.26390  Biso   1.000  O 
  O10      1.0000 0.99791  0.24977  0.76390  Biso   1.000  O 
  O11      1.0000 0.49791  0.75024  0.73610  Biso   1.000  O 
  O12      1.0000 0.00209  0.75023  0.23610  Biso   1.000  O 
  O13      1.0000 0.50184  0.70615  0.26977  Biso   1.000  O 
  O14      1.0000 0.99816  0.70615  0.76977  Biso   1.000  O 
  O15      1.0000 0.49816  0.29385  0.73023  Biso   1.000  O 
  O16      1.0000 0.00184  0.29385  0.23023  Biso   1.000  O 
