data_image0
_cell_length_a       13.602
_cell_length_b       12.1498
_cell_length_c       7.41626
_cell_angle_alpha    84.3941
_cell_angle_beta     62.7434
_cell_angle_gamma    32.8625

_symmetry_space_group_name_H-M    "P 1"
_symmetry_int_tables_number       1

loop_
  _symmetry_equiv_pos_as_xyz
  'x, y, z'

loop_
  _atom_site_label
  _atom_site_occupancy
  _atom_site_fract_x
  _atom_site_fract_y
  _atom_site_fract_z
  _atom_site_thermal_displace_type
  _atom_site_B_iso_or_equiv
  _atom_site_type_symbol
  Rb1      1.0000 0.42982  0.42982  0.07018  Biso   1.000  Rb
  Rb2      1.0000 0.07018  0.07018  0.42982  Biso   1.000  Rb
  Rb3      1.0000 0.82018  0.82018  0.17982  Biso   1.000  Rb
  Rb4      1.0000 0.17982  0.17982  0.82018  Biso   1.000  Rb
  Ag1      1.0000 0.50000  0.50000  0.50000  Biso   1.000  Ag
  Ag2      1.0000 0.75000  0.75000  0.75000  Biso   1.000  Ag
  Nb1      1.0000 0.00000  0.00000  0.00000  Biso   1.000  Nb
  Nb2      1.0000 0.25000  0.25000  0.25000  Biso   1.000  Nb
  S1       1.0000 0.05961  0.82693  0.73867  Biso   1.000  S 
  S2       1.0000 0.37479  0.73867  0.82693  Biso   1.000  S 
  S3       1.0000 0.73867  0.37479  0.05961  Biso   1.000  S 
  S4       1.0000 0.82693  0.05961  0.37479  Biso   1.000  S 
  S5       1.0000 0.19039  0.42307  0.51133  Biso   1.000  S 
  S6       1.0000 0.87521  0.51133  0.42307  Biso   1.000  S 
  S7       1.0000 0.51133  0.87521  0.19039  Biso   1.000  S 
  S8       1.0000 0.42307  0.19039  0.87521  Biso   1.000  S 
