data_image0
_cell_length_a       7.64276
_cell_length_b       6.89724
_cell_length_c       6.73252
_cell_angle_alpha    68.2016
_cell_angle_beta     56.9218
_cell_angle_gamma    54.8766

_symmetry_space_group_name_H-M    "P 1"
_symmetry_int_tables_number       1

loop_
  _symmetry_equiv_pos_as_xyz
  'x, y, z'

loop_
  _atom_site_label
  _atom_site_occupancy
  _atom_site_fract_x
  _atom_site_fract_y
  _atom_site_fract_z
  _atom_site_thermal_displace_type
  _atom_site_B_iso_or_equiv
  _atom_site_type_symbol
  Na1      1.0000 0.76365  0.23635  0.76365  Biso   1.000  Na
  Na2      1.0000 0.01366  0.48634  0.01366  Biso   1.000  Na
  Ag1      1.0000 0.24925  0.75075  0.24925  Biso   1.000  Ag
  Ag2      1.0000 0.49925  0.00075  0.49925  Biso   1.000  Ag
  N1       1.0000 0.04575  0.95425  0.04575  Biso   1.000  N 
  N2       1.0000 0.29575  0.20425  0.29575  Biso   1.000  N 
  N3       1.0000 0.51699  0.48301  0.51699  Biso   1.000  N 
  N4       1.0000 0.76699  0.73301  0.76699  Biso   1.000  N 
  O1       1.0000 0.93834  0.87948  0.02774  Biso   1.000  O 
  O2       1.0000 0.02774  0.15445  0.93834  Biso   1.000  O 
  O3       1.0000 0.09555  0.22226  0.37052  Biso   1.000  O 
  O4       1.0000 0.37052  0.31166  0.09555  Biso   1.000  O 
  O5       1.0000 0.30729  0.52103  0.59589  Biso   1.000  O 
  O6       1.0000 0.59589  0.57579  0.30729  Biso   1.000  O 
  O7       1.0000 0.67421  0.65411  0.72897  Biso   1.000  O 
  O8       1.0000 0.72897  0.94271  0.67421  Biso   1.000  O 
