data_image0
_cell_length_a       5.55767
_cell_length_b       5.55767
_cell_length_c       7.93855
_cell_angle_alpha    90
_cell_angle_beta     90
_cell_angle_gamma    90.564

_symmetry_space_group_name_H-M    "P 1"
_symmetry_int_tables_number       1

loop_
  _symmetry_equiv_pos_as_xyz
  'x, y, z'

loop_
  _atom_site_label
  _atom_site_occupancy
  _atom_site_fract_x
  _atom_site_fract_y
  _atom_site_fract_z
  _atom_site_thermal_displace_type
  _atom_site_B_iso_or_equiv
  _atom_site_type_symbol
  Nb1      1.0000 0.00000  0.50000  0.00000  Biso   1.000  Nb
  Nb2      1.0000 0.50000  0.00000  0.50000  Biso   1.000  Nb
  Nb3      1.0000 0.00000  0.50000  0.50000  Biso   1.000  Nb
  Nb4      1.0000 0.50000  0.00000  0.00000  Biso   1.000  Nb
  Ag1      1.0000 0.00761  0.99239  0.25000  Biso   1.000  Ag
  Ag2      1.0000 0.99239  0.00761  0.75000  Biso   1.000  Ag
  Ag3      1.0000 0.50425  0.49575  0.25000  Biso   1.000  Ag
  Ag4      1.0000 0.49575  0.50425  0.75000  Biso   1.000  Ag
  O1       1.0000 0.30041  0.30041  0.00000  Biso   1.000  O 
  O2       1.0000 0.69959  0.69959  0.50000  Biso   1.000  O 
  O3       1.0000 0.69959  0.69959  0.00000  Biso   1.000  O 
  O4       1.0000 0.30041  0.30041  0.50000  Biso   1.000  O 
  O5       1.0000 0.79740  0.20260  0.03739  Biso   1.000  O 
  O6       1.0000 0.79740  0.20260  0.46261  Biso   1.000  O 
  O7       1.0000 0.20260  0.79740  0.53739  Biso   1.000  O 
  O8       1.0000 0.20260  0.79740  0.96261  Biso   1.000  O 
  O9       1.0000 0.02947  0.54639  0.25000  Biso   1.000  O 
  O10      1.0000 0.45361  0.97053  0.25000  Biso   1.000  O 
  O11      1.0000 0.97053  0.45361  0.75000  Biso   1.000  O 
  O12      1.0000 0.54639  0.02947  0.75000  Biso   1.000  O 
