data_image0
_cell_length_a       8.03005
_cell_length_b       7.35433
_cell_length_c       9.98024
_cell_angle_alpha    90
_cell_angle_beta     90
_cell_angle_gamma    90

_symmetry_space_group_name_H-M    "P 1"
_symmetry_int_tables_number       1

loop_
  _symmetry_equiv_pos_as_xyz
  'x, y, z'

loop_
  _atom_site_label
  _atom_site_occupancy
  _atom_site_fract_x
  _atom_site_fract_y
  _atom_site_fract_z
  _atom_site_thermal_displace_type
  _atom_site_B_iso_or_equiv
  _atom_site_type_symbol
  Ag1      1.0000 0.61297  0.98747  0.38950  Biso   1.000  Ag
  Ag2      1.0000 0.11297  0.51253  0.61050  Biso   1.000  Ag
  Ag3      1.0000 0.38703  0.48747  0.11050  Biso   1.000  Ag
  Ag4      1.0000 0.88703  0.01253  0.88950  Biso   1.000  Ag
  Ag5      1.0000 0.38703  0.01253  0.61050  Biso   1.000  Ag
  Ag6      1.0000 0.88703  0.48747  0.38950  Biso   1.000  Ag
  Ag7      1.0000 0.61297  0.51253  0.88950  Biso   1.000  Ag
  Ag8      1.0000 0.11297  0.98747  0.11050  Biso   1.000  Ag
  N1       1.0000 0.87278  0.34125  0.10064  Biso   1.000  N 
  N2       1.0000 0.37278  0.15875  0.89936  Biso   1.000  N 
  N3       1.0000 0.12722  0.84125  0.39936  Biso   1.000  N 
  N4       1.0000 0.62722  0.65875  0.60064  Biso   1.000  N 
  N5       1.0000 0.12722  0.65875  0.89936  Biso   1.000  N 
  N6       1.0000 0.62722  0.84125  0.10064  Biso   1.000  N 
  N7       1.0000 0.87278  0.15875  0.60064  Biso   1.000  N 
  N8       1.0000 0.37278  0.34125  0.39936  Biso   1.000  N 
  O1       1.0000 0.84938  0.30271  0.97698  Biso   1.000  O 
  O2       1.0000 0.34938  0.19729  0.02302  Biso   1.000  O 
  O3       1.0000 0.15062  0.80271  0.52302  Biso   1.000  O 
  O4       1.0000 0.65062  0.69729  0.47698  Biso   1.000  O 
  O5       1.0000 0.15062  0.69729  0.02302  Biso   1.000  O 
  O6       1.0000 0.65062  0.80271  0.97698  Biso   1.000  O 
  O7       1.0000 0.84938  0.19729  0.47698  Biso   1.000  O 
  O8       1.0000 0.34938  0.30271  0.52302  Biso   1.000  O 
  O9       1.0000 0.97992  0.25714  0.17043  Biso   1.000  O 
  O10      1.0000 0.47992  0.24286  0.82957  Biso   1.000  O 
  O11      1.0000 0.02008  0.75714  0.32957  Biso   1.000  O 
  O12      1.0000 0.52008  0.74286  0.67043  Biso   1.000  O 
  O13      1.0000 0.02008  0.74286  0.82957  Biso   1.000  O 
  O14      1.0000 0.52008  0.75714  0.17043  Biso   1.000  O 
  O15      1.0000 0.97992  0.24286  0.67043  Biso   1.000  O 
  O16      1.0000 0.47992  0.25714  0.32957  Biso   1.000  O 
  O17      1.0000 0.78796  0.46712  0.15331  Biso   1.000  O 
  O18      1.0000 0.28796  0.03288  0.84669  Biso   1.000  O 
  O19      1.0000 0.21204  0.96712  0.34669  Biso   1.000  O 
  O20      1.0000 0.71204  0.53288  0.65331  Biso   1.000  O 
  O21      1.0000 0.21204  0.53288  0.84669  Biso   1.000  O 
  O22      1.0000 0.71204  0.96712  0.15331  Biso   1.000  O 
  O23      1.0000 0.78796  0.03288  0.65331  Biso   1.000  O 
  O24      1.0000 0.28796  0.46712  0.34669  Biso   1.000  O 
