data_image0
_cell_length_a       6.04873
_cell_length_b       6.04873
_cell_length_c       5.8135
_cell_angle_alpha    90
_cell_angle_beta     90
_cell_angle_gamma    80.6859

_symmetry_space_group_name_H-M    "P 1"
_symmetry_int_tables_number       1

loop_
  _symmetry_equiv_pos_as_xyz
  'x, y, z'

loop_
  _atom_site_label
  _atom_site_occupancy
  _atom_site_fract_x
  _atom_site_fract_y
  _atom_site_fract_z
  _atom_site_thermal_displace_type
  _atom_site_B_iso_or_equiv
  _atom_site_type_symbol
  Na1      1.0000 0.02874  0.32945  0.25000  Biso   1.000  Na
  Na2      1.0000 0.32945  0.02874  0.75000  Biso   1.000  Na
  Na3      1.0000 0.97126  0.67055  0.75000  Biso   1.000  Na
  Na4      1.0000 0.67055  0.97126  0.25000  Biso   1.000  Na
  Ag1      1.0000 0.50000  0.50000  0.50000  Biso   1.000  Ag
  Ag2      1.0000 0.50000  0.50000  0.00000  Biso   1.000  Ag
  Sb1      1.0000 0.20603  0.79397  0.25000  Biso   1.000  Sb
  Sb2      1.0000 0.79397  0.20603  0.75000  Biso   1.000  Sb
