data_image0
_cell_length_a       6.5026
_cell_length_b       6.5026
_cell_length_c       6.5026
_cell_angle_alpha    47.6776
_cell_angle_beta     47.6776
_cell_angle_gamma    47.6776

_symmetry_space_group_name_H-M    "P 1"
_symmetry_int_tables_number       1

loop_
  _symmetry_equiv_pos_as_xyz
  'x, y, z'

loop_
  _atom_site_label
  _atom_site_occupancy
  _atom_site_fract_x
  _atom_site_fract_y
  _atom_site_fract_z
  _atom_site_thermal_displace_type
  _atom_site_B_iso_or_equiv
  _atom_site_type_symbol
  Ag1      1.0000 0.48651  0.48651  0.48651  Biso   1.000  Ag
  Ag2      1.0000 0.98651  0.98651  0.98651  Biso   1.000  Ag
  O1       1.0000 0.69782  0.97961  0.49768  Biso   1.000  O 
  O2       1.0000 0.97961  0.49768  0.69782  Biso   1.000  O 
  O3       1.0000 0.49768  0.69782  0.97961  Biso   1.000  O 
  O4       1.0000 0.19782  0.99768  0.47961  Biso   1.000  O 
  O5       1.0000 0.99768  0.47961  0.19782  Biso   1.000  O 
  O6       1.0000 0.47961  0.19782  0.99768  Biso   1.000  O 
  N1       1.0000 0.72528  0.72528  0.72528  Biso   1.000  N 
  N2       1.0000 0.22528  0.22528  0.22528  Biso   1.000  N 
