data_image0
_cell_length_a       5.62794
_cell_length_b       5.71666
_cell_length_c       15.7304
_cell_angle_alpha    90
_cell_angle_beta     90
_cell_angle_gamma    90

_symmetry_space_group_name_H-M    "P 1"
_symmetry_int_tables_number       1

loop_
  _symmetry_equiv_pos_as_xyz
  'x, y, z'

loop_
  _atom_site_label
  _atom_site_occupancy
  _atom_site_fract_x
  _atom_site_fract_y
  _atom_site_fract_z
  _atom_site_thermal_displace_type
  _atom_site_B_iso_or_equiv
  _atom_site_type_symbol
  Nb1      1.0000 0.24370  0.21856  0.12499  Biso   1.000  Nb
  Nb2      1.0000 0.24370  0.28144  0.62499  Biso   1.000  Nb
  Nb3      1.0000 0.75630  0.71856  0.12499  Biso   1.000  Nb
  Nb4      1.0000 0.24370  0.21856  0.37501  Biso   1.000  Nb
  Nb5      1.0000 0.75630  0.78144  0.87501  Biso   1.000  Nb
  Nb6      1.0000 0.75630  0.71856  0.37501  Biso   1.000  Nb
  Nb7      1.0000 0.24370  0.28144  0.87501  Biso   1.000  Nb
  Nb8      1.0000 0.75630  0.78144  0.62499  Biso   1.000  Nb
  Ag1      1.0000 0.74279  0.25000  0.00000  Biso   1.000  Ag
  Ag2      1.0000 0.74279  0.25000  0.50000  Biso   1.000  Ag
  Ag3      1.0000 0.25721  0.75000  0.00000  Biso   1.000  Ag
  Ag4      1.0000 0.25721  0.75000  0.50000  Biso   1.000  Ag
  Ag5      1.0000 0.73879  0.22120  0.25000  Biso   1.000  Ag
  Ag6      1.0000 0.73879  0.27880  0.75000  Biso   1.000  Ag
  Ag7      1.0000 0.26121  0.72120  0.25000  Biso   1.000  Ag
  Ag8      1.0000 0.26121  0.77880  0.75000  Biso   1.000  Ag
  O1       1.0000 0.31710  0.25000  0.00000  Biso   1.000  O 
  O2       1.0000 0.31710  0.25000  0.50000  Biso   1.000  O 
  O3       1.0000 0.68290  0.75000  0.00000  Biso   1.000  O 
  O4       1.0000 0.68290  0.75000  0.50000  Biso   1.000  O 
  O5       1.0000 0.95958  0.04236  0.10816  Biso   1.000  O 
  O6       1.0000 0.95958  0.45764  0.60816  Biso   1.000  O 
  O7       1.0000 0.04042  0.54236  0.10816  Biso   1.000  O 
  O8       1.0000 0.95958  0.04236  0.39184  Biso   1.000  O 
  O9       1.0000 0.04042  0.95764  0.89184  Biso   1.000  O 
  O10      1.0000 0.04042  0.54236  0.39184  Biso   1.000  O 
  O11      1.0000 0.95958  0.45764  0.89184  Biso   1.000  O 
  O12      1.0000 0.04042  0.95764  0.60816  Biso   1.000  O 
  O13      1.0000 0.54433  0.46338  0.14163  Biso   1.000  O 
  O14      1.0000 0.54433  0.03662  0.64163  Biso   1.000  O 
  O15      1.0000 0.45567  0.96338  0.14163  Biso   1.000  O 
  O16      1.0000 0.54433  0.46338  0.35837  Biso   1.000  O 
  O17      1.0000 0.45567  0.53662  0.85837  Biso   1.000  O 
  O18      1.0000 0.45567  0.96338  0.35837  Biso   1.000  O 
  O19      1.0000 0.54433  0.03662  0.85837  Biso   1.000  O 
  O20      1.0000 0.45567  0.53662  0.64163  Biso   1.000  O 
  O21      1.0000 0.18818  0.27568  0.25000  Biso   1.000  O 
  O22      1.0000 0.18818  0.22432  0.75000  Biso   1.000  O 
  O23      1.0000 0.81182  0.77568  0.25000  Biso   1.000  O 
  O24      1.0000 0.81182  0.72432  0.75000  Biso   1.000  O 
