data_image0
_cell_length_a       15.7454
_cell_length_b       5.63152
_cell_length_c       5.71255
_cell_angle_alpha    90
_cell_angle_beta     90
_cell_angle_gamma    90

_symmetry_space_group_name_H-M    "P 1"
_symmetry_int_tables_number       1

loop_
  _symmetry_equiv_pos_as_xyz
  'x, y, z'

loop_
  _atom_site_label
  _atom_site_occupancy
  _atom_site_fract_x
  _atom_site_fract_y
  _atom_site_fract_z
  _atom_site_thermal_displace_type
  _atom_site_B_iso_or_equiv
  _atom_site_type_symbol
  Ag1      1.0000 0.74999  0.74143  0.26541  Biso   1.000  Ag
  Ag2      1.0000 0.74999  0.25857  0.76541  Biso   1.000  Ag
  Ag3      1.0000 0.25001  0.25857  0.76541  Biso   1.000  Ag
  Ag4      1.0000 0.25001  0.74143  0.26541  Biso   1.000  Ag
  Ag5      1.0000 0.50000  0.73680  0.23496  Biso   1.000  Ag
  Ag6      1.0000 0.50000  0.26320  0.73496  Biso   1.000  Ag
  Ag7      1.0000 0.00000  0.73667  0.29564  Biso   1.000  Ag
  Ag8      1.0000 0.00000  0.26333  0.79564  Biso   1.000  Ag
  Nb1      1.0000 0.62498  0.75687  0.73358  Biso   1.000  Nb
  Nb2      1.0000 0.62498  0.24313  0.23358  Biso   1.000  Nb
  Nb3      1.0000 0.37502  0.24313  0.23358  Biso   1.000  Nb
  Nb4      1.0000 0.37502  0.75687  0.73358  Biso   1.000  Nb
  Nb5      1.0000 0.12500  0.24312  0.29692  Biso   1.000  Nb
  Nb6      1.0000 0.12500  0.75688  0.79692  Biso   1.000  Nb
  Nb7      1.0000 0.87500  0.75688  0.79692  Biso   1.000  Nb
  Nb8      1.0000 0.87500  0.24312  0.29692  Biso   1.000  Nb
  O1       1.0000 0.74998  0.68526  0.76565  Biso   1.000  O 
  O2       1.0000 0.74998  0.31474  0.26565  Biso   1.000  O 
  O3       1.0000 0.25002  0.31474  0.26565  Biso   1.000  O 
  O4       1.0000 0.25002  0.68526  0.76565  Biso   1.000  O 
  O5       1.0000 0.50000  0.80889  0.79169  Biso   1.000  O 
  O6       1.0000 0.50000  0.19111  0.29169  Biso   1.000  O 
  O7       1.0000 0.60905  0.54697  0.47631  Biso   1.000  O 
  O8       1.0000 0.60905  0.45303  0.97631  Biso   1.000  O 
  O9       1.0000 0.39095  0.45303  0.97631  Biso   1.000  O 
  O10      1.0000 0.39095  0.54697  0.47631  Biso   1.000  O 
  O11      1.0000 0.64109  0.04287  0.56005  Biso   1.000  O 
  O12      1.0000 0.64109  0.95713  0.06005  Biso   1.000  O 
  O13      1.0000 0.35891  0.95713  0.06005  Biso   1.000  O 
  O14      1.0000 0.35891  0.04287  0.56005  Biso   1.000  O 
  O15      1.0000 0.00000  0.18980  0.23991  Biso   1.000  O 
  O16      1.0000 0.00000  0.81020  0.73991  Biso   1.000  O 
  O17      1.0000 0.14130  0.04230  0.97136  Biso   1.000  O 
  O18      1.0000 0.14130  0.95770  0.47136  Biso   1.000  O 
  O19      1.0000 0.85870  0.95770  0.47136  Biso   1.000  O 
  O20      1.0000 0.85870  0.04230  0.97136  Biso   1.000  O 
  O21      1.0000 0.10886  0.45426  0.55333  Biso   1.000  O 
  O22      1.0000 0.10886  0.54574  0.05333  Biso   1.000  O 
  O23      1.0000 0.89114  0.54574  0.05333  Biso   1.000  O 
  O24      1.0000 0.89114  0.45426  0.55333  Biso   1.000  O 
