data_image0
_cell_length_a       7.09365
_cell_length_b       7.09365
_cell_length_c       7.09365
_cell_angle_alpha    96.1359
_cell_angle_beta     96.1359
_cell_angle_gamma    141.834

_symmetry_space_group_name_H-M    "P 1"
_symmetry_int_tables_number       1

loop_
  _symmetry_equiv_pos_as_xyz
  'x, y, z'

loop_
  _atom_site_label
  _atom_site_occupancy
  _atom_site_fract_x
  _atom_site_fract_y
  _atom_site_fract_z
  _atom_site_thermal_displace_type
  _atom_site_B_iso_or_equiv
  _atom_site_type_symbol
  Ag1      1.0000 0.09177  0.59177  0.18354  Biso   1.000  Ag
  Ag2      1.0000 0.40823  0.90823  0.81646  Biso   1.000  Ag
  Ag3      1.0000 0.40823  0.59177  0.50000  Biso   1.000  Ag
  Ag4      1.0000 0.09177  0.90823  0.50000  Biso   1.000  Ag
  Na1      1.0000 0.40927  0.24972  0.15956  Biso   1.000  Na
  Na2      1.0000 0.09016  0.24972  0.84044  Biso   1.000  Na
  Na3      1.0000 0.75028  0.90984  0.15956  Biso   1.000  Na
  Na4      1.0000 0.75028  0.59073  0.84044  Biso   1.000  Na
  O1       1.0000 0.55934  0.74925  0.81009  Biso   1.000  O 
  O2       1.0000 0.93916  0.74925  0.18991  Biso   1.000  O 
  O3       1.0000 0.25075  0.06084  0.81009  Biso   1.000  O 
  O4       1.0000 0.25075  0.44066  0.18991  Biso   1.000  O 
