data_image0
_cell_length_a       7.79791
_cell_length_b       7.79791
_cell_length_c       7.79791
_cell_angle_alpha    131.824
_cell_angle_beta     127.595
_cell_angle_gamma    73.9235

_symmetry_space_group_name_H-M    "P 1"
_symmetry_int_tables_number       1

loop_
  _symmetry_equiv_pos_as_xyz
  'x, y, z'

loop_
  _atom_site_label
  _atom_site_occupancy
  _atom_site_fract_x
  _atom_site_fract_y
  _atom_site_fract_z
  _atom_site_thermal_displace_type
  _atom_site_B_iso_or_equiv
  _atom_site_type_symbol
  Na1      1.0000 0.75000  0.50000  0.25000  Biso   1.000  Na
  Na2      1.0000 0.25000  0.50000  0.75000  Biso   1.000  Na
  Na3      1.0000 0.98113  0.23113  0.75000  Biso   1.000  Na
  Na4      1.0000 0.51887  0.76887  0.75000  Biso   1.000  Na
  Na5      1.0000 0.01887  0.76887  0.25000  Biso   1.000  Na
  Na6      1.0000 0.48113  0.23113  0.25000  Biso   1.000  Na
  Ag1      1.0000 0.50000  0.00000  0.50000  Biso   1.000  Ag
  Ag2      1.0000 0.00000  0.00000  0.00000  Biso   1.000  Ag
  S1       1.0000 0.63187  0.85938  0.22751  Biso   1.000  S 
  S2       1.0000 0.36813  0.14062  0.77249  Biso   1.000  S 
  S3       1.0000 0.13187  0.40437  0.27249  Biso   1.000  S 
  S4       1.0000 0.86813  0.59563  0.72751  Biso   1.000  S 
