data_image0
_cell_length_a       6.70871
_cell_length_b       6.70871
_cell_length_c       6.70871
_cell_angle_alpha    132.435
_cell_angle_beta     128.279
_cell_angle_gamma    72.8875

_symmetry_space_group_name_H-M    "P 1"
_symmetry_int_tables_number       1

loop_
  _symmetry_equiv_pos_as_xyz
  'x, y, z'

loop_
  _atom_site_label
  _atom_site_occupancy
  _atom_site_fract_x
  _atom_site_fract_y
  _atom_site_fract_z
  _atom_site_thermal_displace_type
  _atom_site_B_iso_or_equiv
  _atom_site_type_symbol
  Na1      1.0000 0.48994  0.23994  0.25000  Biso   1.000  Na
  Na2      1.0000 0.98994  0.23994  0.75000  Biso   1.000  Na
  Na3      1.0000 0.51006  0.76006  0.75000  Biso   1.000  Na
  Na4      1.0000 0.01006  0.76006  0.25000  Biso   1.000  Na
  Na5      1.0000 0.25000  0.50000  0.75000  Biso   1.000  Na
  Na6      1.0000 0.75000  0.50000  0.25000  Biso   1.000  Na
  Ag1      1.0000 0.00000  0.00000  0.00000  Biso   1.000  Ag
  Ag2      1.0000 0.50000  0.00000  0.50000  Biso   1.000  Ag
  O1       1.0000 0.13634  0.85999  0.72364  Biso   1.000  O 
  O2       1.0000 0.63634  0.41270  0.77636  Biso   1.000  O 
  O3       1.0000 0.36366  0.58730  0.22364  Biso   1.000  O 
  O4       1.0000 0.86366  0.14001  0.27636  Biso   1.000  O 
