data_image0
_cell_length_a       5.11906
_cell_length_b       8.57207
_cell_length_c       14.6974
_cell_angle_alpha    81.4763
_cell_angle_beta     90
_cell_angle_gamma    90

_symmetry_space_group_name_H-M    "P 1"
_symmetry_int_tables_number       1

loop_
  _symmetry_equiv_pos_as_xyz
  'x, y, z'

loop_
  _atom_site_label
  _atom_site_occupancy
  _atom_site_fract_x
  _atom_site_fract_y
  _atom_site_fract_z
  _atom_site_thermal_displace_type
  _atom_site_B_iso_or_equiv
  _atom_site_type_symbol
  Ag1      1.0000 0.92984  0.18624  0.21608  Biso   1.000  Ag
  Ag2      1.0000 0.42984  0.81376  0.28392  Biso   1.000  Ag
  Ag3      1.0000 0.07016  0.81376  0.78392  Biso   1.000  Ag
  Ag4      1.0000 0.57016  0.18624  0.71608  Biso   1.000  Ag
  Rb1      1.0000 0.45352  0.26791  0.43537  Biso   1.000  Rb
  Rb2      1.0000 0.95352  0.73209  0.06463  Biso   1.000  Rb
  Rb3      1.0000 0.54648  0.73209  0.56463  Biso   1.000  Rb
  Rb4      1.0000 0.04648  0.26791  0.93537  Biso   1.000  Rb
  N1       1.0000 0.96273  0.94064  0.39513  Biso   1.000  N 
  N2       1.0000 0.46273  0.05936  0.10487  Biso   1.000  N 
  N3       1.0000 0.03727  0.05936  0.60487  Biso   1.000  N 
  N4       1.0000 0.53727  0.94064  0.89513  Biso   1.000  N 
  N5       1.0000 0.86558  0.57090  0.33433  Biso   1.000  N 
  N6       1.0000 0.36558  0.42910  0.16567  Biso   1.000  N 
  N7       1.0000 0.13442  0.42910  0.66567  Biso   1.000  N 
  N8       1.0000 0.63442  0.57090  0.83433  Biso   1.000  N 
  O1       1.0000 0.12824  0.00894  0.33544  Biso   1.000  O 
  O2       1.0000 0.62824  0.99106  0.16456  Biso   1.000  O 
  O3       1.0000 0.87176  0.99106  0.66456  Biso   1.000  O 
  O4       1.0000 0.37176  0.00894  0.83544  Biso   1.000  O 
  O5       1.0000 0.72567  0.98202  0.38881  Biso   1.000  O 
  O6       1.0000 0.22567  0.01798  0.11119  Biso   1.000  O 
  O7       1.0000 0.27433  0.01798  0.61119  Biso   1.000  O 
  O8       1.0000 0.77433  0.98202  0.88881  Biso   1.000  O 
  O9       1.0000 0.04068  0.83426  0.45711  Biso   1.000  O 
  O10      1.0000 0.54068  0.16574  0.04289  Biso   1.000  O 
  O11      1.0000 0.95932  0.16574  0.54289  Biso   1.000  O 
  O12      1.0000 0.45932  0.83426  0.95711  Biso   1.000  O 
  O13      1.0000 0.63535  0.59576  0.36557  Biso   1.000  O 
  O14      1.0000 0.13535  0.40424  0.13443  Biso   1.000  O 
  O15      1.0000 0.36465  0.40424  0.63443  Biso   1.000  O 
  O16      1.0000 0.86465  0.59576  0.86557  Biso   1.000  O 
  O17      1.0000 0.97163  0.67671  0.27702  Biso   1.000  O 
  O18      1.0000 0.47163  0.32329  0.22298  Biso   1.000  O 
  O19      1.0000 0.02837  0.32329  0.72298  Biso   1.000  O 
  O20      1.0000 0.52837  0.67671  0.77702  Biso   1.000  O 
  O21      1.0000 0.97521  0.44164  0.36191  Biso   1.000  O 
  O22      1.0000 0.47521  0.55836  0.13809  Biso   1.000  O 
  O23      1.0000 0.02479  0.55836  0.63809  Biso   1.000  O 
  O24      1.0000 0.52479  0.44164  0.86191  Biso   1.000  O 
