data_image0
_cell_length_a       14.2399
_cell_length_b       12.7288
_cell_length_c       7.71822
_cell_angle_alpha    84.5034
_cell_angle_beta     62.8454
_cell_angle_gamma    32.6512

_symmetry_space_group_name_H-M    "P 1"
_symmetry_int_tables_number       1

loop_
  _symmetry_equiv_pos_as_xyz
  'x, y, z'

loop_
  _atom_site_label
  _atom_site_occupancy
  _atom_site_fract_x
  _atom_site_fract_y
  _atom_site_fract_z
  _atom_site_thermal_displace_type
  _atom_site_B_iso_or_equiv
  _atom_site_type_symbol
  Nb1      1.0000 0.00000  0.00000  0.00000  Biso   1.000  Nb
  Nb2      1.0000 0.25000  0.25000  0.25000  Biso   1.000  Nb
  Rb1      1.0000 0.43072  0.43072  0.06928  Biso   1.000  Rb
  Rb2      1.0000 0.06928  0.06928  0.43072  Biso   1.000  Rb
  Rb3      1.0000 0.81928  0.81928  0.18072  Biso   1.000  Rb
  Rb4      1.0000 0.18072  0.18072  0.81928  Biso   1.000  Rb
  Se1      1.0000 0.06059  0.82405  0.73502  Biso   1.000  Se
  Se2      1.0000 0.38034  0.73502  0.82405  Biso   1.000  Se
  Se3      1.0000 0.73502  0.38034  0.06059  Biso   1.000  Se
  Se4      1.0000 0.82405  0.06059  0.38034  Biso   1.000  Se
  Se5      1.0000 0.18941  0.42595  0.51498  Biso   1.000  Se
  Se6      1.0000 0.86966  0.51498  0.42595  Biso   1.000  Se
  Se7      1.0000 0.51498  0.86966  0.18941  Biso   1.000  Se
  Se8      1.0000 0.42595  0.18941  0.86966  Biso   1.000  Se
  Ag1      1.0000 0.50000  0.50000  0.50000  Biso   1.000  Ag
  Ag2      1.0000 0.75000  0.75000  0.75000  Biso   1.000  Ag
