data_image0
_cell_length_a       7.03486
_cell_length_b       7.03486
_cell_length_c       7.03486
_cell_angle_alpha    95.9902
_cell_angle_beta     95.9902
_cell_angle_gamma    142.305

_symmetry_space_group_name_H-M    "P 1"
_symmetry_int_tables_number       1

loop_
  _symmetry_equiv_pos_as_xyz
  'x, y, z'

loop_
  _atom_site_label
  _atom_site_occupancy
  _atom_site_fract_x
  _atom_site_fract_y
  _atom_site_fract_z
  _atom_site_thermal_displace_type
  _atom_site_B_iso_or_equiv
  _atom_site_type_symbol
  Ag1      1.0000 0.15831  0.15831  0.31662  Biso   1.000  Ag
  Ag2      1.0000 0.84169  0.84169  0.68338  Biso   1.000  Ag
  Ag3      1.0000 0.15831  0.84169  0.00000  Biso   1.000  Ag
  Ag4      1.0000 0.84169  0.15831  0.00000  Biso   1.000  Ag
  Na1      1.0000 0.50000  0.15972  0.65972  Biso   1.000  Na
  Na2      1.0000 0.15972  0.50000  0.65972  Biso   1.000  Na
  Na3      1.0000 0.84028  0.50000  0.34028  Biso   1.000  Na
  Na4      1.0000 0.50000  0.84028  0.34028  Biso   1.000  Na
  O1       1.0000 0.00000  0.31085  0.31085  Biso   1.000  O 
  O2       1.0000 0.31085  0.00000  0.31085  Biso   1.000  O 
  O3       1.0000 0.68915  0.00000  0.68915  Biso   1.000  O 
  O4       1.0000 0.00000  0.68915  0.68915  Biso   1.000  O 
