data_image0
_cell_length_a       6.06867
_cell_length_b       9.09374
_cell_length_c       8.3112
_cell_angle_alpha    74.4457
_cell_angle_beta     90
_cell_angle_gamma    90

_symmetry_space_group_name_H-M    "P 1"
_symmetry_int_tables_number       1

loop_
  _symmetry_equiv_pos_as_xyz
  'x, y, z'

loop_
  _atom_site_label
  _atom_site_occupancy
  _atom_site_fract_x
  _atom_site_fract_y
  _atom_site_fract_z
  _atom_site_thermal_displace_type
  _atom_site_B_iso_or_equiv
  _atom_site_type_symbol
  Ag1      1.0000 0.97988  0.55452  0.27087  Biso   1.000  Ag
  Ag2      1.0000 0.52012  0.55452  0.77087  Biso   1.000  Ag
  Ag3      1.0000 0.02012  0.44548  0.72913  Biso   1.000  Ag
  Ag4      1.0000 0.47988  0.44548  0.22913  Biso   1.000  Ag
  Na1      1.0000 0.36284  0.05681  0.67075  Biso   1.000  Na
  Na2      1.0000 0.13716  0.05681  0.17075  Biso   1.000  Na
  Na3      1.0000 0.63716  0.94319  0.32925  Biso   1.000  Na
  Na4      1.0000 0.86284  0.94319  0.82925  Biso   1.000  Na
  S1       1.0000 0.37241  0.80770  0.00704  Biso   1.000  S 
  S2       1.0000 0.12759  0.80770  0.50704  Biso   1.000  S 
  S3       1.0000 0.62759  0.19230  0.99296  Biso   1.000  S 
  S4       1.0000 0.87241  0.19230  0.49296  Biso   1.000  S 
  S5       1.0000 0.21634  0.59748  0.03114  Biso   1.000  S 
  S6       1.0000 0.28366  0.59748  0.53114  Biso   1.000  S 
  S7       1.0000 0.78366  0.40252  0.96886  Biso   1.000  S 
  S8       1.0000 0.71634  0.40252  0.46886  Biso   1.000  S 
  O1       1.0000 0.19705  0.92490  0.96417  Biso   1.000  O 
  O2       1.0000 0.30295  0.92490  0.46417  Biso   1.000  O 
  O3       1.0000 0.80295  0.07510  0.03583  Biso   1.000  O 
  O4       1.0000 0.69705  0.07510  0.53583  Biso   1.000  O 
  O5       1.0000 0.52547  0.82442  0.86394  Biso   1.000  O 
  O6       1.0000 0.97453  0.82442  0.36394  Biso   1.000  O 
  O7       1.0000 0.47453  0.17558  0.13606  Biso   1.000  O 
  O8       1.0000 0.02547  0.17558  0.63606  Biso   1.000  O 
  O9       1.0000 0.48435  0.80674  0.16300  Biso   1.000  O 
  O10      1.0000 0.01565  0.80674  0.66300  Biso   1.000  O 
  O11      1.0000 0.51565  0.19326  0.83700  Biso   1.000  O 
  O12      1.0000 0.98435  0.19326  0.33700  Biso   1.000  O 
