data_image0
_cell_length_a       8.17285
_cell_length_b       7.38049
_cell_length_c       9.92515
_cell_angle_alpha    90
_cell_angle_beta     90
_cell_angle_gamma    90

_symmetry_space_group_name_H-M    "P 1"
_symmetry_int_tables_number       1

loop_
  _symmetry_equiv_pos_as_xyz
  'x, y, z'

loop_
  _atom_site_label
  _atom_site_occupancy
  _atom_site_fract_x
  _atom_site_fract_y
  _atom_site_fract_z
  _atom_site_thermal_displace_type
  _atom_site_B_iso_or_equiv
  _atom_site_type_symbol
  Ag1      1.0000 0.61631  0.00799  0.10775  Biso   1.000  Ag
  Ag2      1.0000 0.11631  0.49201  0.89225  Biso   1.000  Ag
  Ag3      1.0000 0.88369  0.99201  0.60775  Biso   1.000  Ag
  Ag4      1.0000 0.38369  0.50799  0.39225  Biso   1.000  Ag
  Ag5      1.0000 0.38445  0.99200  0.89216  Biso   1.000  Ag
  Ag6      1.0000 0.88445  0.50800  0.10784  Biso   1.000  Ag
  Ag7      1.0000 0.11555  0.00800  0.39216  Biso   1.000  Ag
  Ag8      1.0000 0.61555  0.49200  0.60784  Biso   1.000  Ag
  N1       1.0000 0.87177  0.66241  0.39840  Biso   1.000  N 
  N2       1.0000 0.37177  0.83759  0.60160  Biso   1.000  N 
  N3       1.0000 0.62823  0.33759  0.89840  Biso   1.000  N 
  N4       1.0000 0.12823  0.16241  0.10160  Biso   1.000  N 
  N5       1.0000 0.12774  0.33732  0.60162  Biso   1.000  N 
  N6       1.0000 0.62774  0.16268  0.39838  Biso   1.000  N 
  N7       1.0000 0.37226  0.66268  0.10162  Biso   1.000  N 
  N8       1.0000 0.87226  0.83732  0.89838  Biso   1.000  N 
  O1       1.0000 0.84657  0.70227  0.52234  Biso   1.000  O 
  O2       1.0000 0.34657  0.79773  0.47766  Biso   1.000  O 
  O3       1.0000 0.65343  0.29773  0.02234  Biso   1.000  O 
  O4       1.0000 0.15343  0.20227  0.97766  Biso   1.000  O 
  O5       1.0000 0.97680  0.74694  0.32855  Biso   1.000  O 
  O6       1.0000 0.47680  0.75306  0.67145  Biso   1.000  O 
  O7       1.0000 0.52320  0.25306  0.82855  Biso   1.000  O 
  O8       1.0000 0.02320  0.24694  0.17145  Biso   1.000  O 
  O9       1.0000 0.79047  0.53510  0.34590  Biso   1.000  O 
  O10      1.0000 0.29047  0.96490  0.65410  Biso   1.000  O 
  O11      1.0000 0.70953  0.46490  0.84590  Biso   1.000  O 
  O12      1.0000 0.20953  0.03510  0.15410  Biso   1.000  O 
  O13      1.0000 0.15265  0.29769  0.47762  Biso   1.000  O 
  O14      1.0000 0.65265  0.20231  0.52238  Biso   1.000  O 
  O15      1.0000 0.34735  0.70231  0.97762  Biso   1.000  O 
  O16      1.0000 0.84735  0.79769  0.02238  Biso   1.000  O 
  O17      1.0000 0.02278  0.25289  0.67155  Biso   1.000  O 
  O18      1.0000 0.52278  0.24711  0.32845  Biso   1.000  O 
  O19      1.0000 0.47722  0.74711  0.17155  Biso   1.000  O 
  O20      1.0000 0.97722  0.75289  0.82845  Biso   1.000  O 
  O21      1.0000 0.20933  0.46441  0.65409  Biso   1.000  O 
  O22      1.0000 0.70933  0.03559  0.34590  Biso   1.000  O 
  O23      1.0000 0.29067  0.53559  0.15409  Biso   1.000  O 
  O24      1.0000 0.79067  0.96441  0.84590  Biso   1.000  O 
