data_image0
_cell_length_a       4.9395
_cell_length_b       4.9395
_cell_length_c       4.9395
_cell_angle_alpha    109.695
_cell_angle_beta     109.695
_cell_angle_gamma    109.024

_symmetry_space_group_name_H-M    "P 1"
_symmetry_int_tables_number       1

loop_
  _symmetry_equiv_pos_as_xyz
  'x, y, z'

loop_
  _atom_site_label
  _atom_site_occupancy
  _atom_site_fract_x
  _atom_site_fract_y
  _atom_site_fract_z
  _atom_site_thermal_displace_type
  _atom_site_B_iso_or_equiv
  _atom_site_type_symbol
  Ag1      1.0000 0.25000  0.25000  0.00000  Biso   1.000  Ag
  Ag2      1.0000 0.75000  0.75000  0.00000  Biso   1.000  Ag
  N1       1.0000 0.50000  0.00000  0.50000  Biso   1.000  N 
  N2       1.0000 0.00000  0.50000  0.50000  Biso   1.000  N 
  N3       1.0000 0.64769  0.14769  0.79539  Biso   1.000  N 
  N4       1.0000 0.35231  0.85231  0.20461  Biso   1.000  N 
  N5       1.0000 0.14769  0.35231  0.50000  Biso   1.000  N 
  N6       1.0000 0.85231  0.64769  0.50000  Biso   1.000  N 
