data_image0
_cell_length_a       7.79347
_cell_length_b       7.79347
_cell_length_c       7.79347
_cell_angle_alpha    98.2957
_cell_angle_beta     98.2957
_cell_angle_gamma    135.352

_symmetry_space_group_name_H-M    "P 1"
_symmetry_int_tables_number       1

loop_
  _symmetry_equiv_pos_as_xyz
  'x, y, z'

loop_
  _atom_site_label
  _atom_site_occupancy
  _atom_site_fract_x
  _atom_site_fract_y
  _atom_site_fract_z
  _atom_site_thermal_displace_type
  _atom_site_B_iso_or_equiv
  _atom_site_type_symbol
  Ag1      1.0000 0.14399  0.14399  0.28797  Biso   1.000  Ag
  Ag2      1.0000 0.85601  0.85601  0.71203  Biso   1.000  Ag
  Ag3      1.0000 0.14399  0.85601  0.00000  Biso   1.000  Ag
  Ag4      1.0000 0.85601  0.14399  0.00000  Biso   1.000  Ag
  Rb1      1.0000 0.50000  0.18706  0.68706  Biso   1.000  Rb
  Rb2      1.0000 0.50000  0.81294  0.31294  Biso   1.000  Rb
  Rb3      1.0000 0.18706  0.50000  0.68706  Biso   1.000  Rb
  Rb4      1.0000 0.81294  0.50000  0.31294  Biso   1.000  Rb
  O1       1.0000 0.28687  0.00000  0.28687  Biso   1.000  O 
  O2       1.0000 0.71313  0.00000  0.71313  Biso   1.000  O 
  O3       1.0000 0.00000  0.71313  0.71313  Biso   1.000  O 
  O4       1.0000 0.00000  0.28687  0.28687  Biso   1.000  O 
