data_image0
_cell_length_a       9.75045
_cell_length_b       10.5039
_cell_length_c       5.68813
_cell_angle_alpha    77.2849
_cell_angle_beta     90
_cell_angle_gamma    90

_symmetry_space_group_name_H-M    "P 1"
_symmetry_int_tables_number       1

loop_
  _symmetry_equiv_pos_as_xyz
  'x, y, z'

loop_
  _atom_site_label
  _atom_site_occupancy
  _atom_site_fract_x
  _atom_site_fract_y
  _atom_site_fract_z
  _atom_site_thermal_displace_type
  _atom_site_B_iso_or_equiv
  _atom_site_type_symbol
  Ag1      1.0000 0.59156  0.00000  0.25000  Biso   1.000  Ag
  Ag2      1.0000 0.40844  1.00000  0.75000  Biso   1.000  Ag
  Ag3      1.0000 0.90844  0.50000  0.75000  Biso   1.000  Ag
  Ag4      1.0000 0.09156  0.50000  0.25000  Biso   1.000  Ag
  Ag5      1.0000 0.22467  0.00000  0.25000  Biso   1.000  Ag
  Ag6      1.0000 0.77533  1.00000  0.75000  Biso   1.000  Ag
  Ag7      1.0000 0.27533  0.50000  0.75000  Biso   1.000  Ag
  Ag8      1.0000 0.72467  0.50000  0.25000  Biso   1.000  Ag
  V1       1.0000 0.42020  0.69288  0.22138  Biso   1.000  V 
  V2       1.0000 0.57980  0.69288  0.72138  Biso   1.000  V 
  V3       1.0000 0.57980  0.30712  0.77862  Biso   1.000  V 
  V4       1.0000 0.42020  0.30712  0.27862  Biso   1.000  V 
  V5       1.0000 0.07980  0.19288  0.72138  Biso   1.000  V 
  V6       1.0000 0.07980  0.80712  0.77862  Biso   1.000  V 
  V7       1.0000 0.92020  0.80712  0.27862  Biso   1.000  V 
  V8       1.0000 0.92020  0.19288  0.22138  Biso   1.000  V 
  O1       1.0000 0.40985  0.85755  0.16588  Biso   1.000  O 
  O2       1.0000 0.59015  0.85755  0.66588  Biso   1.000  O 
  O3       1.0000 0.59015  0.14245  0.83412  Biso   1.000  O 
  O4       1.0000 0.40985  0.14245  0.33412  Biso   1.000  O 
  O5       1.0000 0.09015  0.35755  0.66588  Biso   1.000  O 
  O6       1.0000 0.09015  0.64245  0.83412  Biso   1.000  O 
  O7       1.0000 0.90985  0.64245  0.33412  Biso   1.000  O 
  O8       1.0000 0.90985  0.35755  0.16588  Biso   1.000  O 
  O9       1.0000 0.77583  0.12692  0.35611  Biso   1.000  O 
  O10      1.0000 0.22417  0.12692  0.85611  Biso   1.000  O 
  O11      1.0000 0.22417  0.87308  0.64389  Biso   1.000  O 
  O12      1.0000 0.77583  0.87308  0.14389  Biso   1.000  O 
  O13      1.0000 0.72417  0.62692  0.85611  Biso   1.000  O 
  O14      1.0000 0.72417  0.37308  0.64389  Biso   1.000  O 
  O15      1.0000 0.27583  0.37308  0.14389  Biso   1.000  O 
  O16      1.0000 0.27583  0.62692  0.35611  Biso   1.000  O 
  O17      1.0000 0.56298  0.64337  0.43359  Biso   1.000  O 
  O18      1.0000 0.43702  0.64337  0.93359  Biso   1.000  O 
  O19      1.0000 0.43702  0.35663  0.56641  Biso   1.000  O 
  O20      1.0000 0.56298  0.35663  0.06641  Biso   1.000  O 
  O21      1.0000 0.93702  0.14337  0.93359  Biso   1.000  O 
  O22      1.0000 0.93702  0.85663  0.56641  Biso   1.000  O 
  O23      1.0000 0.06298  0.85663  0.06641  Biso   1.000  O 
  O24      1.0000 0.06298  0.14337  0.43359  Biso   1.000  O 
