data_image0
_cell_length_a       11.6049
_cell_length_b       6.17464
_cell_length_c       9.04041
_cell_angle_alpha    59.5716
_cell_angle_beta     90
_cell_angle_gamma    90

_symmetry_space_group_name_H-M    "P 1"
_symmetry_int_tables_number       1

loop_
  _symmetry_equiv_pos_as_xyz
  'x, y, z'

loop_
  _atom_site_label
  _atom_site_occupancy
  _atom_site_fract_x
  _atom_site_fract_y
  _atom_site_fract_z
  _atom_site_thermal_displace_type
  _atom_site_B_iso_or_equiv
  _atom_site_type_symbol
  Ag1      1.0000 0.34864  0.55002  0.25959  Biso   1.000  Ag
  Ag2      1.0000 0.15136  0.55002  0.75959  Biso   1.000  Ag
  Ag3      1.0000 0.65136  0.44998  0.74041  Biso   1.000  Ag
  Ag4      1.0000 0.84864  0.44998  0.24041  Biso   1.000  Ag
  Ag5      1.0000 0.32867  0.38001  0.01098  Biso   1.000  Ag
  Ag6      1.0000 0.17133  0.38001  0.51098  Biso   1.000  Ag
  Ag7      1.0000 0.67133  0.61999  0.98902  Biso   1.000  Ag
  Ag8      1.0000 0.82867  0.61999  0.48902  Biso   1.000  Ag
  Te1      1.0000 0.12517  0.88470  0.00528  Biso   1.000  Te
  Te2      1.0000 0.37483  0.88470  0.50528  Biso   1.000  Te
  Te3      1.0000 0.87483  0.11530  0.99472  Biso   1.000  Te
  Te4      1.0000 0.62517  0.11530  0.49472  Biso   1.000  Te
  Te5      1.0000 0.43238  0.04505  0.81857  Biso   1.000  Te
  Te6      1.0000 0.06762  0.04505  0.31857  Biso   1.000  Te
  Te7      1.0000 0.56762  0.95495  0.18143  Biso   1.000  Te
  Te8      1.0000 0.93238  0.95495  0.68143  Biso   1.000  Te
  O1       1.0000 0.17324  0.55403  0.08088  Biso   1.000  O 
  O2       1.0000 0.32676  0.55403  0.58088  Biso   1.000  O 
  O3       1.0000 0.82676  0.44597  0.91912  Biso   1.000  O 
  O4       1.0000 0.67324  0.44597  0.41912  Biso   1.000  O 
  O5       1.0000 0.04785  0.20705  0.96649  Biso   1.000  O 
  O6       1.0000 0.45215  0.20705  0.46649  Biso   1.000  O 
  O7       1.0000 0.95215  0.79295  0.03351  Biso   1.000  O 
  O8       1.0000 0.54785  0.79295  0.53351  Biso   1.000  O 
  O9       1.0000 0.27148  0.05572  0.94375  Biso   1.000  O 
  O10      1.0000 0.22852  0.05572  0.44375  Biso   1.000  O 
  O11      1.0000 0.72852  0.94428  0.05625  Biso   1.000  O 
  O12      1.0000 0.77148  0.94428  0.55625  Biso   1.000  O 
  O13      1.0000 0.13383  0.80167  0.25318  Biso   1.000  O 
  O14      1.0000 0.36617  0.80167  0.75318  Biso   1.000  O 
  O15      1.0000 0.86617  0.19833  0.74682  Biso   1.000  O 
  O16      1.0000 0.63383  0.19832  0.24682  Biso   1.000  O 
  O17      1.0000 0.09956  0.99591  0.75972  Biso   1.000  O 
  O18      1.0000 0.40044  0.99591  0.25972  Biso   1.000  O 
  O19      1.0000 0.90044  0.00409  0.24028  Biso   1.000  O 
  O20      1.0000 0.59956  0.00409  0.74028  Biso   1.000  O 
  O21      1.0000 0.47715  0.76491  0.03657  Biso   1.000  O 
  O22      1.0000 0.02285  0.76491  0.53657  Biso   1.000  O 
  O23      1.0000 0.52285  0.23509  0.96343  Biso   1.000  O 
  O24      1.0000 0.97715  0.23509  0.46343  Biso   1.000  O 
