data_image0
_cell_length_a       4.20189
_cell_length_b       5.26729
_cell_length_c       20.4273
_cell_angle_alpha    90
_cell_angle_beta     90
_cell_angle_gamma    90

_symmetry_space_group_name_H-M    "P 1"
_symmetry_int_tables_number       1

loop_
  _symmetry_equiv_pos_as_xyz
  'x, y, z'

loop_
  _atom_site_label
  _atom_site_occupancy
  _atom_site_fract_x
  _atom_site_fract_y
  _atom_site_fract_z
  _atom_site_thermal_displace_type
  _atom_site_B_iso_or_equiv
  _atom_site_type_symbol
  Ag1      1.0000 0.37356  0.75000  0.48310  Biso   1.000  Ag
  Ag2      1.0000 0.62644  0.25000  0.51690  Biso   1.000  Ag
  Ag3      1.0000 0.37356  0.25000  0.01690  Biso   1.000  Ag
  Ag4      1.0000 0.62644  0.75000  0.98310  Biso   1.000  Ag
  Se1      1.0000 0.80899  0.75000  0.62076  Biso   1.000  Se
  Se2      1.0000 0.19101  0.25000  0.37924  Biso   1.000  Se
  Se3      1.0000 0.80899  0.25000  0.87924  Biso   1.000  Se
  Se4      1.0000 0.19101  0.75000  0.12076  Biso   1.000  Se
  V1       1.0000 0.45060  0.75000  0.80794  Biso   1.000  V 
  V2       1.0000 0.54940  0.25000  0.19206  Biso   1.000  V 
  V3       1.0000 0.45060  0.25000  0.69206  Biso   1.000  V 
  V4       1.0000 0.54940  0.75000  0.30794  Biso   1.000  V 
  O1       1.0000 0.53765  0.00609  0.61901  Biso   1.000  O 
  O2       1.0000 0.46235  0.50609  0.38099  Biso   1.000  O 
  O3       1.0000 0.53765  0.99391  0.88099  Biso   1.000  O 
  O4       1.0000 0.46235  0.49391  0.11901  Biso   1.000  O 
  O5       1.0000 0.46235  0.99391  0.38099  Biso   1.000  O 
  O6       1.0000 0.53765  0.49391  0.61901  Biso   1.000  O 
  O7       1.0000 0.46235  0.00609  0.11901  Biso   1.000  O 
  O8       1.0000 0.53765  0.50609  0.88099  Biso   1.000  O 
  O9       1.0000 0.88910  0.75000  0.53887  Biso   1.000  O 
  O10      1.0000 0.11090  0.25000  0.46113  Biso   1.000  O 
  O11      1.0000 0.88910  0.25000  0.96113  Biso   1.000  O 
  O12      1.0000 0.11090  0.75000  0.03887  Biso   1.000  O 
  O13      1.0000 0.06353  0.75000  0.81331  Biso   1.000  O 
  O14      1.0000 0.93647  0.25000  0.18669  Biso   1.000  O 
  O15      1.0000 0.06353  0.25000  0.68669  Biso   1.000  O 
  O16      1.0000 0.93647  0.75000  0.31331  Biso   1.000  O 
  O17      1.0000 0.53909  0.50000  0.75000  Biso   1.000  O 
  O18      1.0000 0.46091  0.00000  0.25000  Biso   1.000  O 
  O19      1.0000 0.46091  0.50000  0.25000  Biso   1.000  O 
  O20      1.0000 0.53909  0.00000  0.75000  Biso   1.000  O 
