data_image0
_cell_length_a       3.62958
_cell_length_b       18.0226
_cell_length_c       8.06361
_cell_angle_alpha    75.8073
_cell_angle_beta     90
_cell_angle_gamma    90

_symmetry_space_group_name_H-M    "P 1"
_symmetry_int_tables_number       1

loop_
  _symmetry_equiv_pos_as_xyz
  'x, y, z'

loop_
  _atom_site_label
  _atom_site_occupancy
  _atom_site_fract_x
  _atom_site_fract_y
  _atom_site_fract_z
  _atom_site_thermal_displace_type
  _atom_site_B_iso_or_equiv
  _atom_site_type_symbol
  Ag1      1.0000 0.50000  0.49964  0.49810  Biso   1.000  Ag
  Ag2      1.0000 0.00000  0.99964  0.49810  Biso   1.000  Ag
  Ag3      1.0000 0.00000  0.45061  0.86751  Biso   1.000  Ag
  Ag4      1.0000 0.50000  0.95061  0.86751  Biso   1.000  Ag
  Ag5      1.0000 0.00000  0.54602  0.13570  Biso   1.000  Ag
  Ag6      1.0000 0.50000  0.04602  0.13570  Biso   1.000  Ag
  Ag7      1.0000 0.00000  0.74517  0.96077  Biso   1.000  Ag
  Ag8      1.0000 0.50000  0.24517  0.96077  Biso   1.000  Ag
  V1       1.0000 0.00000  0.86851  0.23237  Biso   1.000  V 
  V2       1.0000 0.50000  0.36851  0.23237  Biso   1.000  V 
  V3       1.0000 0.00000  0.68151  0.43789  Biso   1.000  V 
  V4       1.0000 0.50000  0.18151  0.43789  Biso   1.000  V 
  V5       1.0000 0.50000  0.81747  0.56537  Biso   1.000  V 
  V6       1.0000 0.00000  0.31747  0.56537  Biso   1.000  V 
  V7       1.0000 0.50000  0.62764  0.77001  Biso   1.000  V 
  V8       1.0000 0.00000  0.12764  0.77001  Biso   1.000  V 
  O1       1.0000 0.00000  0.96367  0.24362  Biso   1.000  O 
  O2       1.0000 0.50000  0.46367  0.24362  Biso   1.000  O 
  O3       1.0000 0.00000  0.87890  0.01548  Biso   1.000  O 
  O4       1.0000 0.50000  0.37890  0.01548  Biso   1.000  O 
  O5       1.0000 0.00000  0.74145  0.23849  Biso   1.000  O 
  O6       1.0000 0.50000  0.24145  0.23849  Biso   1.000  O 
  O7       1.0000 0.00000  0.59363  0.40025  Biso   1.000  O 
  O8       1.0000 0.50000  0.09363  0.40025  Biso   1.000  O 
  O9       1.0000 0.00000  0.64786  0.71369  Biso   1.000  O 
  O10      1.0000 0.50000  0.14786  0.71369  Biso   1.000  O 
  O11      1.0000 0.00000  0.80594  0.50531  Biso   1.000  O 
  O12      1.0000 0.50000  0.30594  0.50531  Biso   1.000  O 
  O13      1.0000 0.50000  0.90572  0.60083  Biso   1.000  O 
  O14      1.0000 0.00000  0.40572  0.60083  Biso   1.000  O 
  O15      1.0000 0.50000  0.85052  0.29365  Biso   1.000  O 
  O16      1.0000 0.00000  0.35052  0.29365  Biso   1.000  O 
  O17      1.0000 0.50000  0.69102  0.50469  Biso   1.000  O 
  O18      1.0000 0.00000  0.19102  0.50469  Biso   1.000  O 
  O19      1.0000 0.50000  0.53329  0.75591  Biso   1.000  O 
  O20      1.0000 0.00000  0.03329  0.75591  Biso   1.000  O 
  O21      1.0000 0.50000  0.61756  0.98696  Biso   1.000  O 
  O22      1.0000 0.00000  0.11756  0.98696  Biso   1.000  O 
  O23      1.0000 0.50000  0.75866  0.77069  Biso   1.000  O 
  O24      1.0000 0.00000  0.25866  0.77069  Biso   1.000  O 
