data_image0
_cell_length_a       6.45767
_cell_length_b       6.45767
_cell_length_c       6.45767
_cell_angle_alpha    49.583
_cell_angle_beta     49.583
_cell_angle_gamma    49.583

_symmetry_space_group_name_H-M    "P 1"
_symmetry_int_tables_number       1

loop_
  _symmetry_equiv_pos_as_xyz
  'x, y, z'

loop_
  _atom_site_label
  _atom_site_occupancy
  _atom_site_fract_x
  _atom_site_fract_y
  _atom_site_fract_z
  _atom_site_thermal_displace_type
  _atom_site_B_iso_or_equiv
  _atom_site_type_symbol
  Ag1      1.0000 0.36222  0.36222  0.36222  Biso   1.000  Ag
  Ag2      1.0000 0.63778  0.63778  0.63778  Biso   1.000  Ag
  Sb1      1.0000 0.16301  0.16301  0.16301  Biso   1.000  Sb
  Sb2      1.0000 0.83699  0.83699  0.83699  Biso   1.000  Sb
  O1       1.0000 0.43996  0.04509  0.81382  Biso   1.000  O 
  O2       1.0000 0.95491  0.18618  0.56004  Biso   1.000  O 
  O3       1.0000 0.18618  0.56004  0.95491  Biso   1.000  O 
  O4       1.0000 0.56004  0.95491  0.18618  Biso   1.000  O 
  O5       1.0000 0.04509  0.81382  0.43996  Biso   1.000  O 
  O6       1.0000 0.81382  0.43996  0.04509  Biso   1.000  O 
