data_image0
_cell_length_a       7.79439
_cell_length_b       7.79439
_cell_length_c       7.79439
_cell_angle_alpha    98.3031
_cell_angle_beta     98.3031
_cell_angle_gamma    135.331

_symmetry_space_group_name_H-M    "P 1"
_symmetry_int_tables_number       1

loop_
  _symmetry_equiv_pos_as_xyz
  'x, y, z'

loop_
  _atom_site_label
  _atom_site_occupancy
  _atom_site_fract_x
  _atom_site_fract_y
  _atom_site_fract_z
  _atom_site_thermal_displace_type
  _atom_site_B_iso_or_equiv
  _atom_site_type_symbol
  Ag1      1.0000 0.10599  0.60599  0.21197  Biso   1.000  Ag
  Ag2      1.0000 0.39401  0.89401  0.78803  Biso   1.000  Ag
  Ag3      1.0000 0.39401  0.60599  0.50000  Biso   1.000  Ag
  Ag4      1.0000 0.10599  0.89401  0.50000  Biso   1.000  Ag
  Rb1      1.0000 0.43808  0.25094  0.18714  Biso   1.000  Rb
  Rb2      1.0000 0.06380  0.25094  0.81286  Biso   1.000  Rb
  Rb3      1.0000 0.74906  0.93620  0.18714  Biso   1.000  Rb
  Rb4      1.0000 0.74906  0.56192  0.81286  Biso   1.000  Rb
  O1       1.0000 0.53857  0.75173  0.78684  Biso   1.000  O 
  O2       1.0000 0.96489  0.75173  0.21316  Biso   1.000  O 
  O3       1.0000 0.24827  0.03511  0.78684  Biso   1.000  O 
  O4       1.0000 0.24827  0.46143  0.21316  Biso   1.000  O 
