data_image0
_cell_length_a       6.78962
_cell_length_b       6.78962
_cell_length_c       6.78962
_cell_angle_alpha    119.602
_cell_angle_beta     119.602
_cell_angle_gamma    90.6915

_symmetry_space_group_name_H-M    "P 1"
_symmetry_int_tables_number       1

loop_
  _symmetry_equiv_pos_as_xyz
  'x, y, z'

loop_
  _atom_site_label
  _atom_site_occupancy
  _atom_site_fract_x
  _atom_site_fract_y
  _atom_site_fract_z
  _atom_site_thermal_displace_type
  _atom_site_B_iso_or_equiv
  _atom_site_type_symbol
  Ag1      1.0000 0.37500  0.12500  0.75000  Biso   1.000  Ag
  Ag2      1.0000 0.37500  0.62500  0.25000  Biso   1.000  Ag
  Ag3      1.0000 0.37500  0.62500  0.75000  Biso   1.000  Ag
  Ag4      1.0000 0.87500  0.62500  0.25000  Biso   1.000  Ag
  Ag5      1.0000 0.87500  0.62500  0.75000  Biso   1.000  Ag
  Ag6      1.0000 0.87500  0.12500  0.25000  Biso   1.000  Ag
  Ag7      1.0000 0.87500  0.12500  0.75000  Biso   1.000  Ag
  Ag8      1.0000 0.37500  0.12500  0.25000  Biso   1.000  Ag
  O1       1.0000 0.25344  0.91277  0.82905  Biso   1.000  O 
  O2       1.0000 0.08372  0.42440  0.17095  Biso   1.000  O 
  O3       1.0000 0.17440  0.50344  0.84067  Biso   1.000  O 
  O4       1.0000 0.66277  0.33372  0.15933  Biso   1.000  O 
  O5       1.0000 0.49656  0.33723  0.67095  Biso   1.000  O 
  O6       1.0000 0.66628  0.82560  0.32905  Biso   1.000  O 
  O7       1.0000 0.57560  0.74656  0.65933  Biso   1.000  O 
  O8       1.0000 0.08723  0.91628  0.34067  Biso   1.000  O 
