data_image0
_cell_length_a       5.64629
_cell_length_b       5.64629
_cell_length_c       5.64629
_cell_angle_alpha    58.936
_cell_angle_beta     58.936
_cell_angle_gamma    58.936

_symmetry_space_group_name_H-M    "P 1"
_symmetry_int_tables_number       1

loop_
  _symmetry_equiv_pos_as_xyz
  'x, y, z'

loop_
  _atom_site_label
  _atom_site_occupancy
  _atom_site_fract_x
  _atom_site_fract_y
  _atom_site_fract_z
  _atom_site_thermal_displace_type
  _atom_site_B_iso_or_equiv
  _atom_site_type_symbol
  Ag1      1.0000 0.25028  0.25028  0.25028  Biso   1.000  Ag
  Ag2      1.0000 0.75028  0.75028  0.75028  Biso   1.000  Ag
  Ta1      1.0000 0.00043  0.00043  0.00043  Biso   1.000  Ta
  Ta2      1.0000 0.50043  0.50043  0.50043  Biso   1.000  Ta
  O1       1.0000 0.80999  0.69127  0.25023  Biso   1.000  O 
  O2       1.0000 0.19127  0.30999  0.75023  Biso   1.000  O 
  O3       1.0000 0.30999  0.75023  0.19127  Biso   1.000  O 
  O4       1.0000 0.75023  0.19127  0.30999  Biso   1.000  O 
  O5       1.0000 0.69127  0.25023  0.80999  Biso   1.000  O 
  O6       1.0000 0.25023  0.80999  0.69127  Biso   1.000  O 
