data_image0
_cell_length_a       5.92315
_cell_length_b       7.57302
_cell_length_c       14.0821
_cell_angle_alpha    60.2077
_cell_angle_beta     90
_cell_angle_gamma    90

_symmetry_space_group_name_H-M    "P 1"
_symmetry_int_tables_number       1

loop_
  _symmetry_equiv_pos_as_xyz
  'x, y, z'

loop_
  _atom_site_label
  _atom_site_occupancy
  _atom_site_fract_x
  _atom_site_fract_y
  _atom_site_fract_z
  _atom_site_thermal_displace_type
  _atom_site_B_iso_or_equiv
  _atom_site_type_symbol
  Ag1      1.0000 0.82560  0.51495  0.38009  Biso   1.000  Ag
  Ag2      1.0000 0.67440  0.51495  0.88009  Biso   1.000  Ag
  Ag3      1.0000 0.17440  0.48505  0.61992  Biso   1.000  Ag
  Ag4      1.0000 0.32560  0.48505  0.11991  Biso   1.000  Ag
  Ag5      1.0000 0.42407  0.26417  0.46930  Biso   1.000  Ag
  Ag6      1.0000 0.07593  0.26417  0.96930  Biso   1.000  Ag
  Ag7      1.0000 0.57593  0.73583  0.53070  Biso   1.000  Ag
  Ag8      1.0000 0.92407  0.73583  0.03070  Biso   1.000  Ag
  P1       1.0000 0.29951  0.74216  0.27412  Biso   1.000  P 
  P2       1.0000 0.20049  0.74216  0.77412  Biso   1.000  P 
  P3       1.0000 0.70049  0.25784  0.72588  Biso   1.000  P 
  P4       1.0000 0.79951  0.25784  0.22588  Biso   1.000  P 
  P5       1.0000 0.10440  0.93412  0.39061  Biso   1.000  P 
  P6       1.0000 0.39560  0.93412  0.89061  Biso   1.000  P 
  P7       1.0000 0.89560  0.06588  0.60939  Biso   1.000  P 
  P8       1.0000 0.60440  0.06588  0.10939  Biso   1.000  P 
  O1       1.0000 0.12436  0.62527  0.25080  Biso   1.000  O 
  O2       1.0000 0.37564  0.62527  0.75080  Biso   1.000  O 
  O3       1.0000 0.87564  0.37473  0.74920  Biso   1.000  O 
  O4       1.0000 0.62436  0.37473  0.24920  Biso   1.000  O 
  O5       1.0000 0.18626  0.92955  0.28178  Biso   1.000  O 
  O6       1.0000 0.31374  0.92955  0.78178  Biso   1.000  O 
  O7       1.0000 0.81374  0.07045  0.71822  Biso   1.000  O 
  O8       1.0000 0.68626  0.07045  0.21822  Biso   1.000  O 
  O9       1.0000 0.45110  0.62641  0.37282  Biso   1.000  O 
  O10      1.0000 0.04891  0.62641  0.87282  Biso   1.000  O 
  O11      1.0000 0.54891  0.37359  0.62718  Biso   1.000  O 
  O12      1.0000 0.95109  0.37359  0.12718  Biso   1.000  O 
  O13      1.0000 0.94696  0.13381  0.33543  Biso   1.000  O 
  O14      1.0000 0.55304  0.13381  0.83543  Biso   1.000  O 
  O15      1.0000 0.05304  0.86619  0.66457  Biso   1.000  O 
  O16      1.0000 0.44696  0.86619  0.16457  Biso   1.000  O 
  O17      1.0000 0.29856  0.98306  0.44197  Biso   1.000  O 
  O18      1.0000 0.20144  0.98306  0.94197  Biso   1.000  O 
  O19      1.0000 0.70144  0.01694  0.55803  Biso   1.000  O 
  O20      1.0000 0.79856  0.01694  0.05803  Biso   1.000  O 
  O21      1.0000 0.96497  0.74561  0.46097  Biso   1.000  O 
  O22      1.0000 0.53503  0.74561  0.96097  Biso   1.000  O 
  O23      1.0000 0.03503  0.25439  0.53903  Biso   1.000  O 
  O24      1.0000 0.46497  0.25439  0.03903  Biso   1.000  O 
