data_image0
_cell_length_a       12.804
_cell_length_b       5.52922
_cell_length_c       7.05563
_cell_angle_alpha    76.8632
_cell_angle_beta     90
_cell_angle_gamma    90

_symmetry_space_group_name_H-M    "P 1"
_symmetry_int_tables_number       1

loop_
  _symmetry_equiv_pos_as_xyz
  'x, y, z'

loop_
  _atom_site_label
  _atom_site_occupancy
  _atom_site_fract_x
  _atom_site_fract_y
  _atom_site_fract_z
  _atom_site_thermal_displace_type
  _atom_site_B_iso_or_equiv
  _atom_site_type_symbol
  Te1      1.0000 0.94792  0.73939  0.10664  Biso   1.000  Te
  Te2      1.0000 0.55208  0.73939  0.60664  Biso   1.000  Te
  Te3      1.0000 0.05208  0.26061  0.89336  Biso   1.000  Te
  Te4      1.0000 0.44792  0.26061  0.39336  Biso   1.000  Te
  Ag1      1.0000 0.75846  0.17499  0.32352  Biso   1.000  Ag
  Ag2      1.0000 0.74154  0.17499  0.82352  Biso   1.000  Ag
  Ag3      1.0000 0.24154  0.82501  0.67648  Biso   1.000  Ag
  Ag4      1.0000 0.25846  0.82501  0.17648  Biso   1.000  Ag
  V1       1.0000 0.62395  0.67035  0.08153  Biso   1.000  V 
  V2       1.0000 0.87605  0.67035  0.58153  Biso   1.000  V 
  V3       1.0000 0.37605  0.32965  0.91847  Biso   1.000  V 
  V4       1.0000 0.12395  0.32965  0.41847  Biso   1.000  V 
  O1       1.0000 0.53297  0.58490  0.28507  Biso   1.000  O 
  O2       1.0000 0.96703  0.58490  0.78507  Biso   1.000  O 
  O3       1.0000 0.46703  0.41510  0.71493  Biso   1.000  O 
  O4       1.0000 0.03297  0.41510  0.21493  Biso   1.000  O 
  O5       1.0000 0.54663  0.81183  0.86463  Biso   1.000  O 
  O6       1.0000 0.95337  0.81183  0.36463  Biso   1.000  O 
  O7       1.0000 0.45337  0.18817  0.13537  Biso   1.000  O 
  O8       1.0000 0.04663  0.18817  0.63537  Biso   1.000  O 
  O9       1.0000 0.71409  0.87665  0.12116  Biso   1.000  O 
  O10      1.0000 0.78591  0.87665  0.62116  Biso   1.000  O 
  O11      1.0000 0.28591  0.12335  0.87884  Biso   1.000  O 
  O12      1.0000 0.21409  0.12335  0.37884  Biso   1.000  O 
  O13      1.0000 0.68381  0.41294  0.04931  Biso   1.000  O 
  O14      1.0000 0.81619  0.41294  0.54931  Biso   1.000  O 
  O15      1.0000 0.31619  0.58706  0.95069  Biso   1.000  O 
  O16      1.0000 0.18381  0.58706  0.45069  Biso   1.000  O 
  O17      1.0000 0.08371  0.87835  0.01187  Biso   1.000  O 
  O18      1.0000 0.41629  0.87835  0.51187  Biso   1.000  O 
  O19      1.0000 0.91629  0.12165  0.98813  Biso   1.000  O 
  O20      1.0000 0.58371  0.12165  0.48813  Biso   1.000  O 
