data_image0
_cell_length_a       6.76891
_cell_length_b       6.76891
_cell_length_c       7.15229
_cell_angle_alpha    57.3667
_cell_angle_beta     57.3667
_cell_angle_gamma    62.7784

_symmetry_space_group_name_H-M    "P 1"
_symmetry_int_tables_number       1

loop_
  _symmetry_equiv_pos_as_xyz
  'x, y, z'

loop_
  _atom_site_label
  _atom_site_occupancy
  _atom_site_fract_x
  _atom_site_fract_y
  _atom_site_fract_z
  _atom_site_thermal_displace_type
  _atom_site_B_iso_or_equiv
  _atom_site_type_symbol
  Ag1      1.0000 0.72441  0.27559  0.00000  Biso   1.000  Ag
  Ag2      1.0000 0.27559  0.72441  0.00000  Biso   1.000  Ag
  S1       1.0000 0.82418  0.82418  0.05778  Biso   1.000  S 
  S2       1.0000 0.17582  0.17582  0.94222  Biso   1.000  S 
  S3       1.0000 0.72279  0.27721  0.50000  Biso   1.000  S 
  S4       1.0000 0.27721  0.72279  0.50000  Biso   1.000  S 
  S5       1.0000 0.70232  0.70232  0.63867  Biso   1.000  S 
  S6       1.0000 0.29768  0.29768  0.36133  Biso   1.000  S 
  P1       1.0000 0.65307  0.65307  0.41282  Biso   1.000  P 
  P2       1.0000 0.34693  0.34693  0.58718  Biso   1.000  P 
