data_image0
_cell_length_a       6.19871
_cell_length_b       6.19871
_cell_length_c       13.8249
_cell_angle_alpha    90
_cell_angle_beta     90
_cell_angle_gamma    120

_symmetry_space_group_name_H-M    "P 1"
_symmetry_int_tables_number       1

loop_
  _symmetry_equiv_pos_as_xyz
  'x, y, z'

loop_
  _atom_site_label
  _atom_site_occupancy
  _atom_site_fract_x
  _atom_site_fract_y
  _atom_site_fract_z
  _atom_site_thermal_displace_type
  _atom_site_B_iso_or_equiv
  _atom_site_type_symbol
  Ag1      1.0000 0.66667  0.33333  0.25000  Biso   1.000  Ag
  Ag2      1.0000 0.33333  0.66667  0.75000  Biso   1.000  Ag
  Sc1      1.0000 0.00000  0.00000  0.25000  Biso   1.000  Sc
  Sc2      1.0000 0.00000  0.00000  0.75000  Biso   1.000  Sc
  P1       1.0000 0.33333  0.66667  0.33052  Biso   1.000  P 
  P2       1.0000 0.66667  0.33333  0.83052  Biso   1.000  P 
  P3       1.0000 0.66667  0.33333  0.66948  Biso   1.000  P 
  P4       1.0000 0.33333  0.66667  0.16948  Biso   1.000  P 
  S1       1.0000 0.03190  0.33770  0.37148  Biso   1.000  S 
  S2       1.0000 0.30580  0.96810  0.37148  Biso   1.000  S 
  S3       1.0000 0.66230  0.69420  0.37148  Biso   1.000  S 
  S4       1.0000 0.96810  0.30580  0.87148  Biso   1.000  S 
  S5       1.0000 0.33770  0.03190  0.87148  Biso   1.000  S 
  S6       1.0000 0.69420  0.66230  0.87148  Biso   1.000  S 
  S7       1.0000 0.96810  0.66230  0.62852  Biso   1.000  S 
  S8       1.0000 0.69420  0.03190  0.62852  Biso   1.000  S 
  S9       1.0000 0.33770  0.30580  0.62852  Biso   1.000  S 
  S10      1.0000 0.03190  0.69420  0.12852  Biso   1.000  S 
  S11      1.0000 0.66230  0.96810  0.12852  Biso   1.000  S 
  S12      1.0000 0.30580  0.33770  0.12852  Biso   1.000  S 
