data_image0
_cell_length_a       5.04698
_cell_length_b       6.15178
_cell_length_c       7.91446
_cell_angle_alpha    67.6706
_cell_angle_beta     90
_cell_angle_gamma    90

_symmetry_space_group_name_H-M    "P 1"
_symmetry_int_tables_number       1

loop_
  _symmetry_equiv_pos_as_xyz
  'x, y, z'

loop_
  _atom_site_label
  _atom_site_occupancy
  _atom_site_fract_x
  _atom_site_fract_y
  _atom_site_fract_z
  _atom_site_thermal_displace_type
  _atom_site_B_iso_or_equiv
  _atom_site_type_symbol
  Ag1      1.0000 0.43747  0.86057  0.39940  Biso   1.000  Ag
  Ag2      1.0000 0.06253  0.86057  0.89940  Biso   1.000  Ag
  Ag3      1.0000 0.56253  0.13943  0.60060  Biso   1.000  Ag
  Ag4      1.0000 0.93747  0.13943  0.10060  Biso   1.000  Ag
  P1       1.0000 0.77325  0.72429  0.70345  Biso   1.000  P 
  P2       1.0000 0.72675  0.72429  0.20345  Biso   1.000  P 
  P3       1.0000 0.22675  0.27571  0.29655  Biso   1.000  P 
  P4       1.0000 0.27325  0.27571  0.79655  Biso   1.000  P 
  P5       1.0000 0.09850  0.58899  0.58592  Biso   1.000  P 
  P6       1.0000 0.40150  0.58899  0.08592  Biso   1.000  P 
  P7       1.0000 0.90150  0.41101  0.41408  Biso   1.000  P 
  P8       1.0000 0.59850  0.41101  0.91408  Biso   1.000  P 
