data_image0
_cell_length_a       7.15164
_cell_length_b       9.15318
_cell_length_c       11.4525
_cell_angle_alpha    101.177
_cell_angle_beta     95.9219
_cell_angle_gamma    107.483

_symmetry_space_group_name_H-M    "P 1"
_symmetry_int_tables_number       1

loop_
  _symmetry_equiv_pos_as_xyz
  'x, y, z'

loop_
  _atom_site_label
  _atom_site_occupancy
  _atom_site_fract_x
  _atom_site_fract_y
  _atom_site_fract_z
  _atom_site_thermal_displace_type
  _atom_site_B_iso_or_equiv
  _atom_site_type_symbol
  Ag1      1.0000 0.34618  0.71867  0.50829  Biso   1.000  Ag
  Ag2      1.0000 0.65382  0.28133  0.49171  Biso   1.000  Ag
  P1       1.0000 0.94689  0.56224  0.80310  Biso   1.000  P 
  P2       1.0000 0.05311  0.43776  0.19690  Biso   1.000  P 
  P3       1.0000 0.95600  0.99957  0.65786  Biso   1.000  P 
  P4       1.0000 0.04400  0.00043  0.34214  Biso   1.000  P 
  P5       1.0000 0.90723  0.77756  0.20278  Biso   1.000  P 
  P6       1.0000 0.09277  0.22244  0.79722  Biso   1.000  P 
  P7       1.0000 0.84793  0.55526  0.61567  Biso   1.000  P 
  P8       1.0000 0.15207  0.44474  0.38433  Biso   1.000  P 
  P9       1.0000 0.78703  0.88471  0.78463  Biso   1.000  P 
  P10      1.0000 0.21297  0.11529  0.21537  Biso   1.000  P 
  P11      1.0000 0.74065  0.68212  0.33808  Biso   1.000  P 
  P12      1.0000 0.25935  0.31788  0.66192  Biso   1.000  P 
  P13      1.0000 0.68140  0.49212  0.89322  Biso   1.000  P 
  P14      1.0000 0.31860  0.50788  0.10678  Biso   1.000  P 
  P15      1.0000 0.67187  0.83005  0.07728  Biso   1.000  P 
  P16      1.0000 0.32813  0.16995  0.92272  Biso   1.000  P 
  P17      1.0000 0.61581  0.65980  0.65138  Biso   1.000  P 
  P18      1.0000 0.38419  0.34020  0.34862  Biso   1.000  P 
  P19      1.0000 0.60107  0.23438  0.84165  Biso   1.000  P 
  P20      1.0000 0.39893  0.76562  0.15835  Biso   1.000  P 
  P21      1.0000 0.54458  0.83219  0.35186  Biso   1.000  P 
  P22      1.0000 0.45542  0.16781  0.64814  Biso   1.000  P 
  P23      1.0000 0.44524  0.54735  0.78137  Biso   1.000  P 
  P24      1.0000 0.55476  0.45265  0.21863  Biso   1.000  P 
  P25      1.0000 0.29733  0.92266  0.84136  Biso   1.000  P 
  P26      1.0000 0.70267  0.07734  0.15864  Biso   1.000  P 
  P27      1.0000 0.23039  0.92360  0.64551  Biso   1.000  P 
  P28      1.0000 0.76961  0.07640  0.35449  Biso   1.000  P 
  P29      1.0000 0.01084  0.81431  0.89538  Biso   1.000  P 
  P30      1.0000 0.98916  0.18569  0.10462  Biso   1.000  P 
