data_image0
_cell_length_a       5.84572
_cell_length_b       9.07403
_cell_length_c       13.6608
_cell_angle_alpha    90
_cell_angle_beta     90
_cell_angle_gamma    90

_symmetry_space_group_name_H-M    "P 1"
_symmetry_int_tables_number       1

loop_
  _symmetry_equiv_pos_as_xyz
  'x, y, z'

loop_
  _atom_site_label
  _atom_site_occupancy
  _atom_site_fract_x
  _atom_site_fract_y
  _atom_site_fract_z
  _atom_site_thermal_displace_type
  _atom_site_B_iso_or_equiv
  _atom_site_type_symbol
  Rb1      1.0000 0.82915  0.94550  0.33872  Biso   1.000  Rb
  Rb2      1.0000 0.67085  0.05450  0.83872  Biso   1.000  Rb
  Rb3      1.0000 0.32915  0.55450  0.66128  Biso   1.000  Rb
  Rb4      1.0000 0.17085  0.44550  0.16128  Biso   1.000  Rb
  Ag1      1.0000 0.03596  0.36927  0.43399  Biso   1.000  Ag
  Ag2      1.0000 0.46404  0.63073  0.93399  Biso   1.000  Ag
  Ag3      1.0000 0.53596  0.13073  0.56601  Biso   1.000  Ag
  Ag4      1.0000 0.96404  0.86927  0.06601  Biso   1.000  Ag
  Se1      1.0000 0.19140  0.63774  0.39677  Biso   1.000  Se
  Se2      1.0000 0.30860  0.36226  0.89677  Biso   1.000  Se
  Se3      1.0000 0.69140  0.86226  0.60323  Biso   1.000  Se
  Se4      1.0000 0.80860  0.13774  0.10323  Biso   1.000  Se
  Se5      1.0000 0.58499  0.58152  0.42477  Biso   1.000  Se
  Se6      1.0000 0.91501  0.41848  0.92477  Biso   1.000  Se
  Se7      1.0000 0.08499  0.91848  0.57523  Biso   1.000  Se
  Se8      1.0000 0.41501  0.08152  0.07523  Biso   1.000  Se
  Se9      1.0000 0.63514  0.36503  0.32283  Biso   1.000  Se
  Se10     1.0000 0.86486  0.63497  0.82283  Biso   1.000  Se
  Se11     1.0000 0.13514  0.13497  0.67717  Biso   1.000  Se
  Se12     1.0000 0.36486  0.86503  0.17717  Biso   1.000  Se
  Se13     1.0000 0.37120  0.18793  0.38953  Biso   1.000  Se
  Se14     1.0000 0.12880  0.81207  0.88953  Biso   1.000  Se
  Se15     1.0000 0.87120  0.31207  0.61047  Biso   1.000  Se
  Se16     1.0000 0.62880  0.68793  0.11047  Biso   1.000  Se
