data_image0
_cell_length_a       8.60334
_cell_length_b       8.60334
_cell_length_c       13.7306
_cell_angle_alpha    90
_cell_angle_beta     90
_cell_angle_gamma    90

_symmetry_space_group_name_H-M    "P 1"
_symmetry_int_tables_number       1

loop_
  _symmetry_equiv_pos_as_xyz
  'x, y, z'

loop_
  _atom_site_label
  _atom_site_occupancy
  _atom_site_fract_x
  _atom_site_fract_y
  _atom_site_fract_z
  _atom_site_thermal_displace_type
  _atom_site_B_iso_or_equiv
  _atom_site_type_symbol
  Sn1      1.0000 0.00000  0.50000  0.00000  Biso   1.000  Sn
  Sn2      1.0000 0.50000  0.00000  0.00000  Biso   1.000  Sn
  Sn3      1.0000 0.00000  0.50000  0.25820  Biso   1.000  Sn
  Sn4      1.0000 0.50000  0.00000  0.25820  Biso   1.000  Sn
  Sn5      1.0000 0.50000  0.00000  0.74180  Biso   1.000  Sn
  Sn6      1.0000 0.00000  0.50000  0.74180  Biso   1.000  Sn
  Ag1      1.0000 0.00000  0.50000  0.50000  Biso   1.000  Ag
  Ag2      1.0000 0.50000  0.00000  0.50000  Biso   1.000  Ag
  Se1      1.0000 0.84134  0.65866  0.12431  Biso   1.000  Se
  Se2      1.0000 0.34134  0.84134  0.12431  Biso   1.000  Se
  Se3      1.0000 0.65866  0.15866  0.12431  Biso   1.000  Se
  Se4      1.0000 0.15866  0.34134  0.12431  Biso   1.000  Se
  Se5      1.0000 0.65866  0.84134  0.87569  Biso   1.000  Se
  Se6      1.0000 0.15866  0.65866  0.87569  Biso   1.000  Se
  Se7      1.0000 0.84134  0.34134  0.87569  Biso   1.000  Se
  Se8      1.0000 0.34134  0.15866  0.87569  Biso   1.000  Se
  Se9      1.0000 0.82927  0.32927  0.36121  Biso   1.000  Se
  Se10     1.0000 0.32927  0.17073  0.36121  Biso   1.000  Se
  Se11     1.0000 0.67073  0.82927  0.36121  Biso   1.000  Se
  Se12     1.0000 0.17073  0.67073  0.36121  Biso   1.000  Se
  Se13     1.0000 0.67073  0.17073  0.63879  Biso   1.000  Se
  Se14     1.0000 0.17073  0.32927  0.63879  Biso   1.000  Se
  Se15     1.0000 0.82927  0.67073  0.63879  Biso   1.000  Se
  Se16     1.0000 0.32927  0.82927  0.63879  Biso   1.000  Se
  Rb1      1.0000 0.50000  0.50000  0.50000  Biso   1.000  Rb
  Rb2      1.0000 0.00000  0.00000  0.50000  Biso   1.000  Rb
  Rb3      1.0000 0.50000  0.50000  0.22176  Biso   1.000  Rb
  Rb4      1.0000 0.00000  0.00000  0.22176  Biso   1.000  Rb
  Rb5      1.0000 0.00000  0.00000  0.77824  Biso   1.000  Rb
  Rb6      1.0000 0.50000  0.50000  0.77824  Biso   1.000  Rb
