data_image0
_cell_length_a       13.4018
_cell_length_b       11.9728
_cell_length_c       7.30383
_cell_angle_alpha    84.3934
_cell_angle_beta     62.7606
_cell_angle_gamma    32.846

_symmetry_space_group_name_H-M    "P 1"
_symmetry_int_tables_number       1

loop_
  _symmetry_equiv_pos_as_xyz
  'x, y, z'

loop_
  _atom_site_label
  _atom_site_occupancy
  _atom_site_fract_x
  _atom_site_fract_y
  _atom_site_fract_z
  _atom_site_thermal_displace_type
  _atom_site_B_iso_or_equiv
  _atom_site_type_symbol
  Ag1      1.0000 0.50000  0.50000  0.50000  Biso   1.000  Ag
  Ag2      1.0000 0.75000  0.75000  0.75000  Biso   1.000  Ag
  V1       1.0000 0.00000  0.00000  0.00000  Biso   1.000  V 
  V2       1.0000 0.25000  0.25000  0.25000  Biso   1.000  V 
  S1       1.0000 0.35918  0.75149  0.83612  Biso   1.000  S 
  S2       1.0000 0.05321  0.83612  0.75149  Biso   1.000  S 
  S3       1.0000 0.83612  0.05321  0.35918  Biso   1.000  S 
  S4       1.0000 0.75149  0.35918  0.05321  Biso   1.000  S 
  S5       1.0000 0.89082  0.49851  0.41388  Biso   1.000  S 
  S6       1.0000 0.19679  0.41388  0.49851  Biso   1.000  S 
  S7       1.0000 0.41388  0.19679  0.89082  Biso   1.000  S 
  S8       1.0000 0.49851  0.89082  0.19679  Biso   1.000  S 
  Rb1      1.0000 0.43002  0.43002  0.06998  Biso   1.000  Rb
  Rb2      1.0000 0.06998  0.06998  0.43002  Biso   1.000  Rb
  Rb3      1.0000 0.81998  0.81998  0.18002  Biso   1.000  Rb
  Rb4      1.0000 0.18002  0.18002  0.81998  Biso   1.000  Rb
