data_image0
_cell_length_a       13.6054
_cell_length_b       12.1534
_cell_length_c       7.42469
_cell_angle_alpha    84.3645
_cell_angle_beta     62.7421
_cell_angle_gamma    32.8934

_symmetry_space_group_name_H-M    "P 1"
_symmetry_int_tables_number       1

loop_
  _symmetry_equiv_pos_as_xyz
  'x, y, z'

loop_
  _atom_site_label
  _atom_site_occupancy
  _atom_site_fract_x
  _atom_site_fract_y
  _atom_site_fract_z
  _atom_site_thermal_displace_type
  _atom_site_B_iso_or_equiv
  _atom_site_type_symbol
  Rb1      1.0000 0.07015  0.07015  0.42985  Biso   1.000  Rb
  Rb2      1.0000 0.42985  0.42985  0.07015  Biso   1.000  Rb
  Rb3      1.0000 0.17985  0.17985  0.82015  Biso   1.000  Rb
  Rb4      1.0000 0.82015  0.82015  0.17985  Biso   1.000  Rb
  Ag1      1.0000 0.75000  0.75000  0.75000  Biso   1.000  Ag
  Ag2      1.0000 0.50000  0.50000  0.50000  Biso   1.000  Ag
  Ta1      1.0000 0.25000  0.25000  0.25000  Biso   1.000  Ta
  Ta2      1.0000 0.00000  0.00000  0.00000  Biso   1.000  Ta
  S1       1.0000 0.74105  0.37233  0.05811  Biso   1.000  S 
  S2       1.0000 0.82850  0.05811  0.37233  Biso   1.000  S 
  S3       1.0000 0.05811  0.82850  0.74105  Biso   1.000  S 
  S4       1.0000 0.37233  0.74105  0.82850  Biso   1.000  S 
  S5       1.0000 0.50895  0.87767  0.19189  Biso   1.000  S 
  S6       1.0000 0.42150  0.19189  0.87767  Biso   1.000  S 
  S7       1.0000 0.19189  0.42150  0.50895  Biso   1.000  S 
  S8       1.0000 0.87767  0.50895  0.42150  Biso   1.000  S 
