data_image0
_cell_length_a       14.0143
_cell_length_b       12.5272
_cell_length_c       7.61382
_cell_angle_alpha    84.4347
_cell_angle_beta     62.832
_cell_angle_gamma    32.7333

_symmetry_space_group_name_H-M    "P 1"
_symmetry_int_tables_number       1

loop_
  _symmetry_equiv_pos_as_xyz
  'x, y, z'

loop_
  _atom_site_label
  _atom_site_occupancy
  _atom_site_fract_x
  _atom_site_fract_y
  _atom_site_fract_z
  _atom_site_thermal_displace_type
  _atom_site_B_iso_or_equiv
  _atom_site_type_symbol
  Rb1      1.0000 0.56860  0.56860  0.93140  Biso   1.000  Rb
  Rb2      1.0000 0.93140  0.93140  0.56860  Biso   1.000  Rb
  Rb3      1.0000 0.68140  0.68140  0.31860  Biso   1.000  Rb
  Rb4      1.0000 0.31860  0.31860  0.68140  Biso   1.000  Rb
  Ag1      1.0000 0.00000  0.00000  0.00000  Biso   1.000  Ag
  Ag2      1.0000 0.25000  0.25000  0.25000  Biso   1.000  Ag
  V1       1.0000 0.50000  0.50000  0.50000  Biso   1.000  V 
  V2       1.0000 0.75000  0.75000  0.75000  Biso   1.000  V 
  Se1      1.0000 0.24792  0.86526  0.55367  Biso   1.000  Se
  Se2      1.0000 0.33314  0.55367  0.86526  Biso   1.000  Se
  Se3      1.0000 0.55367  0.33314  0.24792  Biso   1.000  Se
  Se4      1.0000 0.86526  0.24792  0.33314  Biso   1.000  Se
  Se5      1.0000 0.00208  0.38474  0.69633  Biso   1.000  Se
  Se6      1.0000 0.91686  0.69633  0.38474  Biso   1.000  Se
  Se7      1.0000 0.69633  0.91686  0.00208  Biso   1.000  Se
  Se8      1.0000 0.38474  0.00208  0.91686  Biso   1.000  Se
