data_image0
_cell_length_a       10.9834
_cell_length_b       8.2243
_cell_length_c       13.0781
_cell_angle_alpha    52.9892
_cell_angle_beta     90
_cell_angle_gamma    90

_symmetry_space_group_name_H-M    "P 1"
_symmetry_int_tables_number       1

loop_
  _symmetry_equiv_pos_as_xyz
  'x, y, z'

loop_
  _atom_site_label
  _atom_site_occupancy
  _atom_site_fract_x
  _atom_site_fract_y
  _atom_site_fract_z
  _atom_site_thermal_displace_type
  _atom_site_B_iso_or_equiv
  _atom_site_type_symbol
  Rb1      1.0000 0.27508  0.36852  0.99356  Biso   1.000  Rb
  Rb2      1.0000 0.22492  0.36852  0.49356  Biso   1.000  Rb
  Rb3      1.0000 0.72492  0.63148  0.00644  Biso   1.000  Rb
  Rb4      1.0000 0.77508  0.63148  0.50644  Biso   1.000  Rb
  Rb5      1.0000 0.50886  0.10790  0.76276  Biso   1.000  Rb
  Rb6      1.0000 0.99114  0.10790  0.26276  Biso   1.000  Rb
  Rb7      1.0000 0.49114  0.89210  0.23724  Biso   1.000  Rb
  Rb8      1.0000 0.00886  0.89210  0.73724  Biso   1.000  Rb
  Ag1      1.0000 0.53111  0.65137  0.71873  Biso   1.000  Ag
  Ag2      1.0000 0.96889  0.65137  0.21873  Biso   1.000  Ag
  Ag3      1.0000 0.46889  0.34863  0.28127  Biso   1.000  Ag
  Ag4      1.0000 0.03111  0.34863  0.78127  Biso   1.000  Ag
  Sb1      1.0000 0.72535  0.18207  0.46084  Biso   1.000  Sb
  Sb2      1.0000 0.77465  0.18207  0.96084  Biso   1.000  Sb
  Sb3      1.0000 0.27465  0.81793  0.53916  Biso   1.000  Sb
  Sb4      1.0000 0.22535  0.81793  0.03916  Biso   1.000  Sb
  S1       1.0000 0.72453  0.85282  0.66031  Biso   1.000  S 
  S2       1.0000 0.77547  0.85282  0.16031  Biso   1.000  S 
  S3       1.0000 0.27547  0.14718  0.33969  Biso   1.000  S 
  S4       1.0000 0.22453  0.14718  0.83969  Biso   1.000  S 
  S5       1.0000 0.92455  0.31698  0.43794  Biso   1.000  S 
  S6       1.0000 0.57545  0.31698  0.93794  Biso   1.000  S 
  S7       1.0000 0.07545  0.68302  0.56206  Biso   1.000  S 
  S8       1.0000 0.42455  0.68302  0.06206  Biso   1.000  S 
  S9       1.0000 0.68348  0.16653  0.28964  Biso   1.000  S 
  S10      1.0000 0.81652  0.16653  0.78964  Biso   1.000  S 
  S11      1.0000 0.31652  0.83347  0.71036  Biso   1.000  S 
  S12      1.0000 0.18348  0.83347  0.21036  Biso   1.000  S 
  S13      1.0000 0.57047  0.39183  0.44989  Biso   1.000  S 
  S14      1.0000 0.92953  0.39183  0.94989  Biso   1.000  S 
  S15      1.0000 0.42953  0.60817  0.55011  Biso   1.000  S 
  S16      1.0000 0.07047  0.60817  0.05011  Biso   1.000  S 
