data_image0
_cell_length_a       4.28136
_cell_length_b       6.76272
_cell_length_c       13.7646
_cell_angle_alpha    90
_cell_angle_beta     90
_cell_angle_gamma    90

_symmetry_space_group_name_H-M    "P 1"
_symmetry_int_tables_number       1

loop_
  _symmetry_equiv_pos_as_xyz
  'x, y, z'

loop_
  _atom_site_label
  _atom_site_occupancy
  _atom_site_fract_x
  _atom_site_fract_y
  _atom_site_fract_z
  _atom_site_thermal_displace_type
  _atom_site_B_iso_or_equiv
  _atom_site_type_symbol
  Ag1      1.0000 0.49965  0.70268  0.87184  Biso   1.000  Ag
  Ag2      1.0000 0.99965  0.79732  0.12816  Biso   1.000  Ag
  Ag3      1.0000 0.50035  0.20268  0.62816  Biso   1.000  Ag
  Ag4      1.0000 0.00035  0.29732  0.37184  Biso   1.000  Ag
  Y1       1.0000 0.27871  0.70479  0.62666  Biso   1.000  Y 
  Y2       1.0000 0.77871  0.79521  0.37334  Biso   1.000  Y 
  Y3       1.0000 0.72129  0.20479  0.87334  Biso   1.000  Y 
  Y4       1.0000 0.22129  0.29521  0.12666  Biso   1.000  Y 
  Se1      1.0000 0.77765  0.90753  0.72672  Biso   1.000  Se
  Se2      1.0000 0.27765  0.59247  0.27328  Biso   1.000  Se
  Se3      1.0000 0.22235  0.40753  0.77328  Biso   1.000  Se
  Se4      1.0000 0.72235  0.09247  0.22672  Biso   1.000  Se
  Se5      1.0000 0.77086  0.50651  0.52609  Biso   1.000  Se
  Se6      1.0000 0.27086  0.99349  0.47391  Biso   1.000  Se
  Se7      1.0000 0.22914  0.00651  0.97391  Biso   1.000  Se
  Se8      1.0000 0.72914  0.49349  0.02609  Biso   1.000  Se
