data_image0
_cell_length_a       7.33068
_cell_length_b       7.33068
_cell_length_c       7.7647
_cell_angle_alpha    90
_cell_angle_beta     90
_cell_angle_gamma    153.288

_symmetry_space_group_name_H-M    "P 1"
_symmetry_int_tables_number       1

loop_
  _symmetry_equiv_pos_as_xyz
  'x, y, z'

loop_
  _atom_site_label
  _atom_site_occupancy
  _atom_site_fract_x
  _atom_site_fract_y
  _atom_site_fract_z
  _atom_site_thermal_displace_type
  _atom_site_B_iso_or_equiv
  _atom_site_type_symbol
  Ag1      1.0000 0.99876  0.00124  0.74273  Biso   1.000  Ag
  Ag2      1.0000 0.00124  0.99876  0.24273  Biso   1.000  Ag
  Ta1      1.0000 0.26316  0.73684  0.48940  Biso   1.000  Ta
  Ta2      1.0000 0.73684  0.26316  0.98940  Biso   1.000  Ta
  S1       1.0000 0.89656  0.10344  0.49045  Biso   1.000  S 
  S2       1.0000 0.10344  0.89656  0.99045  Biso   1.000  S 
  S3       1.0000 0.67447  0.32553  0.66853  Biso   1.000  S 
  S4       1.0000 0.32553  0.67447  0.16853  Biso   1.000  S 
  S5       1.0000 0.67488  0.32512  0.30988  Biso   1.000  S 
  S6       1.0000 0.32512  0.67488  0.80988  Biso   1.000  S 
