data_image0
_cell_length_a       4.06907
_cell_length_b       6.69325
_cell_length_c       13.205
_cell_angle_alpha    90
_cell_angle_beta     90
_cell_angle_gamma    90

_symmetry_space_group_name_H-M    "P 1"
_symmetry_int_tables_number       1

loop_
  _symmetry_equiv_pos_as_xyz
  'x, y, z'

loop_
  _atom_site_label
  _atom_site_occupancy
  _atom_site_fract_x
  _atom_site_fract_y
  _atom_site_fract_z
  _atom_site_thermal_displace_type
  _atom_site_B_iso_or_equiv
  _atom_site_type_symbol
  Ag1      1.0000 0.50289  0.70761  0.87803  Biso   1.000  Ag
  Ag2      1.0000 0.00289  0.79239  0.12197  Biso   1.000  Ag
  Ag3      1.0000 0.49711  0.20761  0.62197  Biso   1.000  Ag
  Ag4      1.0000 0.99711  0.29239  0.37803  Biso   1.000  Ag
  Sc1      1.0000 0.28654  0.71373  0.62986  Biso   1.000  Sc
  Sc2      1.0000 0.78654  0.78627  0.37014  Biso   1.000  Sc
  Sc3      1.0000 0.71346  0.21373  0.87014  Biso   1.000  Sc
  Sc4      1.0000 0.21346  0.28627  0.12986  Biso   1.000  Sc
  Se1      1.0000 0.78565  0.91500  0.72685  Biso   1.000  Se
  Se2      1.0000 0.28565  0.58500  0.27315  Biso   1.000  Se
  Se3      1.0000 0.21435  0.41500  0.77315  Biso   1.000  Se
  Se4      1.0000 0.71435  0.08500  0.22685  Biso   1.000  Se
  Se5      1.0000 0.77800  0.52656  0.53042  Biso   1.000  Se
  Se6      1.0000 0.27800  0.97344  0.46958  Biso   1.000  Se
  Se7      1.0000 0.22200  0.02656  0.96958  Biso   1.000  Se
  Se8      1.0000 0.72200  0.47344  0.03042  Biso   1.000  Se
