data_image0
_cell_length_a       6.85705
_cell_length_b       6.85705
_cell_length_c       13.3264
_cell_angle_alpha    82.1117
_cell_angle_beta     82.1117
_cell_angle_gamma    38.7723

_symmetry_space_group_name_H-M    "P 1"
_symmetry_int_tables_number       1

loop_
  _symmetry_equiv_pos_as_xyz
  'x, y, z'

loop_
  _atom_site_label
  _atom_site_occupancy
  _atom_site_fract_x
  _atom_site_fract_y
  _atom_site_fract_z
  _atom_site_thermal_displace_type
  _atom_site_B_iso_or_equiv
  _atom_site_type_symbol
  Ag1      1.0000 0.98375  0.01624  0.75000  Biso   1.000  Ag
  Ag2      1.0000 0.01625  0.98375  0.25000  Biso   1.000  Ag
  Ag3      1.0000 0.50000  0.50000  0.50000  Biso   1.000  Ag
  Ag4      1.0000 0.50000  0.50000  0.00000  Biso   1.000  Ag
  Sb1      1.0000 0.28720  0.22101  0.37384  Biso   1.000  Sb
  Sb2      1.0000 0.77899  0.71280  0.12616  Biso   1.000  Sb
  Sb3      1.0000 0.71280  0.77899  0.62616  Biso   1.000  Sb
  Sb4      1.0000 0.22101  0.28720  0.87384  Biso   1.000  Sb
  S1       1.0000 0.79563  0.49180  0.30014  Biso   1.000  S 
  S2       1.0000 0.50820  0.20437  0.19986  Biso   1.000  S 
  S3       1.0000 0.20437  0.50820  0.69986  Biso   1.000  S 
  S4       1.0000 0.49180  0.79563  0.80014  Biso   1.000  S 
  S5       1.0000 0.92201  0.29631  0.58431  Biso   1.000  S 
  S6       1.0000 0.70369  0.07799  0.91569  Biso   1.000  S 
  S7       1.0000 0.07799  0.70369  0.41569  Biso   1.000  S 
  S8       1.0000 0.29631  0.92201  0.08431  Biso   1.000  S 
