data_image0
_cell_length_a       7.07843
_cell_length_b       7.07843
_cell_length_c       4.70691
_cell_angle_alpha    90
_cell_angle_beta     90
_cell_angle_gamma    90

_symmetry_space_group_name_H-M    "P 1"
_symmetry_int_tables_number       1

loop_
  _symmetry_equiv_pos_as_xyz
  'x, y, z'

loop_
  _atom_site_label
  _atom_site_occupancy
  _atom_site_fract_x
  _atom_site_fract_y
  _atom_site_fract_z
  _atom_site_thermal_displace_type
  _atom_site_B_iso_or_equiv
  _atom_site_type_symbol
  Y1       1.0000 0.00000  0.50000  0.81372  Biso   1.000  Y 
  Y2       1.0000 0.50000  0.00000  0.18628  Biso   1.000  Y 
  Ag1      1.0000 0.50000  0.50000  0.00000  Biso   1.000  Ag
  Ag2      1.0000 0.00000  0.00000  0.00000  Biso   1.000  Ag
  Te1      1.0000 0.20342  0.70342  0.29570  Biso   1.000  Te
  Te2      1.0000 0.29658  0.20342  0.70430  Biso   1.000  Te
  Te3      1.0000 0.79658  0.29658  0.29570  Biso   1.000  Te
  Te4      1.0000 0.70342  0.79658  0.70430  Biso   1.000  Te
