data_image0
_cell_length_a       6.99018
_cell_length_b       6.99018
_cell_length_c       23.1891
_cell_angle_alpha    90
_cell_angle_beta     90
_cell_angle_gamma    120

_symmetry_space_group_name_H-M    "P 1"
_symmetry_int_tables_number       1

loop_
  _symmetry_equiv_pos_as_xyz
  'x, y, z'

loop_
  _atom_site_label
  _atom_site_occupancy
  _atom_site_fract_x
  _atom_site_fract_y
  _atom_site_fract_z
  _atom_site_thermal_displace_type
  _atom_site_B_iso_or_equiv
  _atom_site_type_symbol
  Bi1      1.0000 0.33333  0.66667  0.82534  Biso   1.000  Bi
  Bi2      1.0000 0.33333  0.66667  0.67466  Biso   1.000  Bi
  Bi3      1.0000 0.66667  0.33333  0.32534  Biso   1.000  Bi
  Bi4      1.0000 0.66667  0.33333  0.17466  Biso   1.000  Bi
  Ag1      1.0000 0.66667  0.33333  0.75000  Biso   1.000  Ag
  Ag2      1.0000 0.33333  0.66667  0.25000  Biso   1.000  Ag
  Ag3      1.0000 0.00000  0.00000  0.75000  Biso   1.000  Ag
  Ag4      1.0000 0.00000  0.00000  0.25000  Biso   1.000  Ag
  S1       1.0000 0.62311  0.66820  0.75000  Biso   1.000  S 
  S2       1.0000 0.33180  0.95491  0.75000  Biso   1.000  S 
  S3       1.0000 0.04509  0.37689  0.75000  Biso   1.000  S 
  S4       1.0000 0.66820  0.62311  0.25000  Biso   1.000  S 
  S5       1.0000 0.95491  0.33180  0.25000  Biso   1.000  S 
  S6       1.0000 0.37689  0.04509  0.25000  Biso   1.000  S 
  Al1      1.0000 0.66667  0.33333  0.91838  Biso   1.000  Al
  Al2      1.0000 0.66667  0.33333  0.58162  Biso   1.000  Al
  Al3      1.0000 0.33333  0.66667  0.41838  Biso   1.000  Al
  Al4      1.0000 0.33333  0.66667  0.08162  Biso   1.000  Al
  Cl1      1.0000 0.66667  0.33333  0.00940  Biso   1.000  Cl
  Cl2      1.0000 0.66667  0.33333  0.49060  Biso   1.000  Cl
  Cl3      1.0000 0.33333  0.66667  0.50940  Biso   1.000  Cl
  Cl4      1.0000 0.33333  0.66667  0.99060  Biso   1.000  Cl
  Cl5      1.0000 0.73280  0.08229  0.88312  Biso   1.000  Cl
  Cl6      1.0000 0.91771  0.65051  0.88312  Biso   1.000  Cl
  Cl7      1.0000 0.34949  0.26720  0.88312  Biso   1.000  Cl
  Cl8      1.0000 0.73280  0.08229  0.61688  Biso   1.000  Cl
  Cl9      1.0000 0.91771  0.65051  0.61688  Biso   1.000  Cl
  Cl10     1.0000 0.34949  0.26720  0.61688  Biso   1.000  Cl
  Cl11     1.0000 0.08229  0.73280  0.38312  Biso   1.000  Cl
  Cl12     1.0000 0.65051  0.91771  0.38312  Biso   1.000  Cl
  Cl13     1.0000 0.26720  0.34949  0.38312  Biso   1.000  Cl
  Cl14     1.0000 0.08229  0.73280  0.11688  Biso   1.000  Cl
  Cl15     1.0000 0.65051  0.91771  0.11688  Biso   1.000  Cl
  Cl16     1.0000 0.26720  0.34949  0.11688  Biso   1.000  Cl
