data_image0
_cell_length_a       13.078
_cell_length_b       9.80376
_cell_length_c       6.94495
_cell_angle_alpha    80.7158
_cell_angle_beta     90
_cell_angle_gamma    90

_symmetry_space_group_name_H-M    "P 1"
_symmetry_int_tables_number       1

loop_
  _symmetry_equiv_pos_as_xyz
  'x, y, z'

loop_
  _atom_site_label
  _atom_site_occupancy
  _atom_site_fract_x
  _atom_site_fract_y
  _atom_site_fract_z
  _atom_site_thermal_displace_type
  _atom_site_B_iso_or_equiv
  _atom_site_type_symbol
  Ag1      1.0000 0.40285  0.24294  0.08540  Biso   1.000  Ag
  Ag2      1.0000 0.59715  0.24294  0.58540  Biso   1.000  Ag
  Ag3      1.0000 0.10485  0.03472  0.77985  Biso   1.000  Ag
  Ag4      1.0000 0.89515  0.03472  0.27985  Biso   1.000  Ag
  Ag5      1.0000 0.09376  0.68950  0.37214  Biso   1.000  Ag
  Ag6      1.0000 0.90624  0.68950  0.87214  Biso   1.000  Ag
  Ag7      1.0000 0.10770  0.36187  0.87077  Biso   1.000  Ag
  Ag8      1.0000 0.89230  0.36187  0.37077  Biso   1.000  Ag
  Ag9      1.0000 0.39486  0.56750  0.60865  Biso   1.000  Ag
  Ag10     1.0000 0.60514  0.56750  0.10865  Biso   1.000  Ag
  Ag11     1.0000 0.20181  0.95920  0.19313  Biso   1.000  Ag
  Ag12     1.0000 0.79819  0.95920  0.69313  Biso   1.000  Ag
  Ag13     1.0000 0.49884  0.83999  0.84202  Biso   1.000  Ag
  Ag14     1.0000 0.50116  0.83999  0.34202  Biso   1.000  Ag
  Ag15     1.0000 0.32494  0.95310  0.58053  Biso   1.000  Ag
  Ag16     1.0000 0.67506  0.95310  0.08053  Biso   1.000  Ag
  As1      1.0000 0.31069  0.31499  0.56455  Biso   1.000  As
  As2      1.0000 0.68931  0.31499  0.06455  Biso   1.000  As
  As3      1.0000 0.31702  0.61820  0.15480  Biso   1.000  As
  As4      1.0000 0.68298  0.61820  0.65480  Biso   1.000  As
  As5      1.0000 0.16538  0.30276  0.32110  Biso   1.000  As
  As6      1.0000 0.83462  0.30276  0.82110  Biso   1.000  As
  As7      1.0000 0.17621  0.62825  0.89857  Biso   1.000  As
  As8      1.0000 0.82379  0.62825  0.39857  Biso   1.000  As
  S1       1.0000 0.41992  0.16213  0.45495  Biso   1.000  S 
  S2       1.0000 0.58008  0.16213  0.95495  Biso   1.000  S 
  S3       1.0000 0.07895  0.79484  0.00449  Biso   1.000  S 
  S4       1.0000 0.92105  0.79484  0.50449  Biso   1.000  S 
  S5       1.0000 0.25343  0.19766  0.85459  Biso   1.000  S 
  S6       1.0000 0.74657  0.19766  0.35459  Biso   1.000  S 
  S7       1.0000 0.24490  0.72851  0.60966  Biso   1.000  S 
  S8       1.0000 0.75510  0.72851  0.10966  Biso   1.000  S 
  S9       1.0000 0.36895  0.84702  0.09501  Biso   1.000  S 
  S10      1.0000 0.63105  0.84702  0.59501  Biso   1.000  S 
  S11      1.0000 0.43248  0.51370  0.98677  Biso   1.000  S 
  S12      1.0000 0.56752  0.51370  0.48677  Biso   1.000  S 
  S13      1.0000 0.09749  0.08695  0.40506  Biso   1.000  S 
  S14      1.0000 0.90251  0.08695  0.90506  Biso   1.000  S 
  S15      1.0000 0.06375  0.42848  0.48876  Biso   1.000  S 
  S16      1.0000 0.93625  0.42848  0.98876  Biso   1.000  S 
