data_image0
_cell_length_a       6.51308
_cell_length_b       6.51308
_cell_length_c       6.51308
_cell_angle_alpha    116.488
_cell_angle_beta     111.319
_cell_angle_gamma    100.978

_symmetry_space_group_name_H-M    "P 1"
_symmetry_int_tables_number       1

loop_
  _symmetry_equiv_pos_as_xyz
  'x, y, z'

loop_
  _atom_site_label
  _atom_site_occupancy
  _atom_site_fract_x
  _atom_site_fract_y
  _atom_site_fract_z
  _atom_site_thermal_displace_type
  _atom_site_B_iso_or_equiv
  _atom_site_type_symbol
  Ba1      1.0000 0.00000  0.00000  0.00000  Biso   1.000  Ba
  Ag1      1.0000 0.68481  0.18481  0.50000  Biso   1.000  Ag
  Ag2      1.0000 0.31519  0.81519  0.50000  Biso   1.000  Ag
  Sn1      1.0000 0.50000  0.50000  0.00000  Biso   1.000  Sn
  S1       1.0000 0.51663  0.53344  0.39355  Biso   1.000  S 
  S2       1.0000 0.48337  0.87692  0.01681  Biso   1.000  S 
  S3       1.0000 0.86011  0.46656  0.98319  Biso   1.000  S 
  S4       1.0000 0.13989  0.12308  0.60645  Biso   1.000  S 
