data_image0
_cell_length_a       8.55167
_cell_length_b       8.55167
_cell_length_c       8.25007
_cell_angle_alpha    81.3859
_cell_angle_beta     81.3859
_cell_angle_gamma    80.6137

_symmetry_space_group_name_H-M    "P 1"
_symmetry_int_tables_number       1

loop_
  _symmetry_equiv_pos_as_xyz
  'x, y, z'

loop_
  _atom_site_label
  _atom_site_occupancy
  _atom_site_fract_x
  _atom_site_fract_y
  _atom_site_fract_z
  _atom_site_thermal_displace_type
  _atom_site_B_iso_or_equiv
  _atom_site_type_symbol
  Hg1      1.0000 0.00000  0.00000  0.00000  Biso   1.000  Hg
  Hg2      1.0000 0.72608  0.72608  0.86502  Biso   1.000  Hg
  Hg3      1.0000 0.27392  0.27392  0.13498  Biso   1.000  Hg
  Hg4      1.0000 0.73177  0.36623  0.23517  Biso   1.000  Hg
  Hg5      1.0000 0.36623  0.73177  0.23517  Biso   1.000  Hg
  Hg6      1.0000 0.26823  0.63377  0.76483  Biso   1.000  Hg
  Hg7      1.0000 0.63377  0.26823  0.76483  Biso   1.000  Hg
  Br1      1.0000 0.64631  0.64631  0.54299  Biso   1.000  Br
  Br2      1.0000 0.35369  0.35369  0.45701  Biso   1.000  Br
  Br3      1.0000 0.04995  0.63739  0.15074  Biso   1.000  Br
  Br4      1.0000 0.63739  0.04995  0.15074  Biso   1.000  Br
  Br5      1.0000 0.95005  0.36261  0.84926  Biso   1.000  Br
  Br6      1.0000 0.36261  0.95005  0.84926  Biso   1.000  Br
  Ag1      1.0000 1.00000  0.50000  0.50000  Biso   1.000  Ag
  Ag2      1.0000 0.50000  1.00000  0.50000  Biso   1.000  Ag
  P1       1.0000 0.56314  0.56314  0.06753  Biso   1.000  P 
  P2       1.0000 0.43686  0.43686  0.93247  Biso   1.000  P 
  P3       1.0000 0.91327  0.91327  0.74422  Biso   1.000  P 
  P4       1.0000 0.08673  0.08673  0.25578  Biso   1.000  P 
  P5       1.0000 0.92389  0.23853  0.42464  Biso   1.000  P 
  P6       1.0000 0.23853  0.92389  0.42464  Biso   1.000  P 
  P7       1.0000 0.07611  0.76147  0.57536  Biso   1.000  P 
  P8       1.0000 0.76147  0.07611  0.57536  Biso   1.000  P 
