data_image0
_cell_length_a       6.73005
_cell_length_b       6.73005
_cell_length_c       6.73005
_cell_angle_alpha    115.775
_cell_angle_beta     110.935
_cell_angle_gamma    101.997

_symmetry_space_group_name_H-M    "P 1"
_symmetry_int_tables_number       1

loop_
  _symmetry_equiv_pos_as_xyz
  'x, y, z'

loop_
  _atom_site_label
  _atom_site_occupancy
  _atom_site_fract_x
  _atom_site_fract_y
  _atom_site_fract_z
  _atom_site_thermal_displace_type
  _atom_site_B_iso_or_equiv
  _atom_site_type_symbol
  Ba1      1.0000 0.00000  0.00000  0.00000  Biso   1.000  Ba
  Sn1      1.0000 0.50000  0.50000  0.00000  Biso   1.000  Sn
  Ag1      1.0000 0.31944  0.81944  0.50000  Biso   1.000  Ag
  Ag2      1.0000 0.68056  0.18056  0.50000  Biso   1.000  Ag
  Se1      1.0000 0.87060  0.46957  0.98773  Biso   1.000  Se
  Se2      1.0000 0.48184  0.88286  0.01227  Biso   1.000  Se
  Se3      1.0000 0.12940  0.11714  0.59897  Biso   1.000  Se
  Se4      1.0000 0.51816  0.53043  0.40103  Biso   1.000  Se
