data_image0
_cell_length_a       7.32613
_cell_length_b       10.9946
_cell_length_c       11.6236
_cell_angle_alpha    78.0526
_cell_angle_beta     89.8868
_cell_angle_gamma    89.2893

_symmetry_space_group_name_H-M    "P 1"
_symmetry_int_tables_number       1

loop_
  _symmetry_equiv_pos_as_xyz
  'x, y, z'

loop_
  _atom_site_label
  _atom_site_occupancy
  _atom_site_fract_x
  _atom_site_fract_y
  _atom_site_fract_z
  _atom_site_thermal_displace_type
  _atom_site_B_iso_or_equiv
  _atom_site_type_symbol
  Bi1      1.0000 0.09740  0.19478  0.16541  Biso   1.000  Bi
  Bi2      1.0000 0.90260  0.80522  0.83459  Biso   1.000  Bi
  Bi3      1.0000 0.91578  0.20009  0.50663  Biso   1.000  Bi
  Bi4      1.0000 0.08422  0.79991  0.49337  Biso   1.000  Bi
  Bi5      1.0000 0.58334  0.80238  0.33814  Biso   1.000  Bi
  Bi6      1.0000 0.41666  0.19762  0.66186  Biso   1.000  Bi
  Bi7      1.0000 0.39998  0.80139  0.99539  Biso   1.000  Bi
  Bi8      1.0000 0.60002  0.19861  0.00461  Biso   1.000  Bi
  Ag1      1.0000 0.51073  0.29019  0.31855  Biso   1.000  Ag
  Ag2      1.0000 0.48927  0.70981  0.68145  Biso   1.000  Ag
  Ag3      1.0000 0.75092  0.48912  0.19041  Biso   1.000  Ag
  Ag4      1.0000 0.24908  0.51088  0.80959  Biso   1.000  Ag
  Ag5      1.0000 0.99286  0.70479  0.18109  Biso   1.000  Ag
  Ag6      1.0000 0.00714  0.29521  0.81891  Biso   1.000  Ag
  Ag7      1.0000 0.25258  0.50576  0.29043  Biso   1.000  Ag
  Ag8      1.0000 0.74742  0.49424  0.70957  Biso   1.000  Ag
  Cl1      1.0000 0.73959  0.09584  0.25800  Biso   1.000  Cl
  Cl2      1.0000 0.26041  0.90416  0.74200  Biso   1.000  Cl
  Cl3      1.0000 0.26840  0.09269  0.44896  Biso   1.000  Cl
  Cl4      1.0000 0.73160  0.90731  0.55104  Biso   1.000  Cl
  Cl5      1.0000 0.21747  0.89759  0.24134  Biso   1.000  Cl
  Cl6      1.0000 0.78253  0.10241  0.75866  Biso   1.000  Cl
  Cl7      1.0000 0.75241  0.90552  0.04709  Biso   1.000  Cl
  Cl8      1.0000 0.24759  0.09448  0.95291  Biso   1.000  Cl
  S1       1.0000 0.39602  0.33520  0.11577  Biso   1.000  S 
  S2       1.0000 0.60398  0.66480  0.88423  Biso   1.000  S 
  S3       1.0000 0.61538  0.34129  0.50177  Biso   1.000  S 
  S4       1.0000 0.38462  0.65871  0.49823  Biso   1.000  S 
  S5       1.0000 0.00153  0.35843  0.29946  Biso   1.000  S 
  S6       1.0000 0.99847  0.64157  0.70054  Biso   1.000  S 
  S7       1.0000 0.88340  0.66215  0.38548  Biso   1.000  S 
  S8       1.0000 0.11660  0.33785  0.61452  Biso   1.000  S 
  S9       1.0000 0.10516  0.65918  0.99597  Biso   1.000  S 
  S10      1.0000 0.89484  0.34082  0.00403  Biso   1.000  S 
  S11      1.0000 0.50045  0.64104  0.19850  Biso   1.000  S 
  S12      1.0000 0.49955  0.35896  0.80150  Biso   1.000  S 
