data_image0
_cell_length_a       6.94021
_cell_length_b       6.94021
_cell_length_c       7.12167
_cell_angle_alpha    90
_cell_angle_beta     90
_cell_angle_gamma    90

_symmetry_space_group_name_H-M    "P 1"
_symmetry_int_tables_number       1

loop_
  _symmetry_equiv_pos_as_xyz
  'x, y, z'

loop_
  _atom_site_label
  _atom_site_occupancy
  _atom_site_fract_x
  _atom_site_fract_y
  _atom_site_fract_z
  _atom_site_thermal_displace_type
  _atom_site_B_iso_or_equiv
  _atom_site_type_symbol
  Ba1      1.0000 0.00000  0.00000  0.00000  Biso   1.000  Ba
  Ba2      1.0000 0.50000  0.50000  0.00000  Biso   1.000  Ba
  Ag1      1.0000 0.25000  0.25000  0.50000  Biso   1.000  Ag
  Ag2      1.0000 0.75000  0.75000  0.50000  Biso   1.000  Ag
  Ag3      1.0000 0.75000  0.25000  0.50000  Biso   1.000  Ag
  Ag4      1.0000 0.25000  0.75000  0.50000  Biso   1.000  Ag
  Hg1      1.0000 0.00000  0.50000  0.22338  Biso   1.000  Hg
  Hg2      1.0000 0.50000  0.00000  0.77662  Biso   1.000  Hg
  Hg3      1.0000 0.00000  0.50000  0.77662  Biso   1.000  Hg
  Hg4      1.0000 0.50000  0.00000  0.22338  Biso   1.000  Hg
  O1       1.0000 0.20820  0.70820  0.21132  Biso   1.000  O 
  O2       1.0000 0.79180  0.29180  0.21132  Biso   1.000  O 
  O3       1.0000 0.70820  0.20820  0.78868  Biso   1.000  O 
  O4       1.0000 0.29180  0.79180  0.78868  Biso   1.000  O 
  O5       1.0000 0.20820  0.29180  0.78868  Biso   1.000  O 
  O6       1.0000 0.79180  0.70820  0.78868  Biso   1.000  O 
  O7       1.0000 0.70820  0.79180  0.21132  Biso   1.000  O 
  O8       1.0000 0.29180  0.20820  0.21132  Biso   1.000  O 
