data_image0
_cell_length_a       4.63971
_cell_length_b       10.9741
_cell_length_c       11.8951
_cell_angle_alpha    90
_cell_angle_beta     90
_cell_angle_gamma    90

_symmetry_space_group_name_H-M    "P 1"
_symmetry_int_tables_number       1

loop_
  _symmetry_equiv_pos_as_xyz
  'x, y, z'

loop_
  _atom_site_label
  _atom_site_occupancy
  _atom_site_fract_x
  _atom_site_fract_y
  _atom_site_fract_z
  _atom_site_thermal_displace_type
  _atom_site_B_iso_or_equiv
  _atom_site_type_symbol
  Ba1      1.0000 0.75000  0.74466  0.19344  Biso   1.000  Ba
  Ba2      1.0000 0.75000  0.24466  0.30656  Biso   1.000  Ba
  Ba3      1.0000 0.25000  0.25534  0.80656  Biso   1.000  Ba
  Ba4      1.0000 0.25000  0.75534  0.69344  Biso   1.000  Ba
  Ag1      1.0000 0.25000  0.55964  0.41366  Biso   1.000  Ag
  Ag2      1.0000 0.25000  0.05964  0.08634  Biso   1.000  Ag
  Ag3      1.0000 0.75000  0.44036  0.58634  Biso   1.000  Ag
  Ag4      1.0000 0.75000  0.94036  0.91366  Biso   1.000  Ag
  Ag5      1.0000 0.75000  0.93983  0.45166  Biso   1.000  Ag
  Ag6      1.0000 0.75000  0.43983  0.04834  Biso   1.000  Ag
  Ag7      1.0000 0.25000  0.06017  0.54834  Biso   1.000  Ag
  Ag8      1.0000 0.25000  0.56017  0.95166  Biso   1.000  Ag
  Te1      1.0000 0.25000  0.97713  0.31295  Biso   1.000  Te
  Te2      1.0000 0.25000  0.47713  0.18705  Biso   1.000  Te
  Te3      1.0000 0.75000  0.02287  0.68705  Biso   1.000  Te
  Te4      1.0000 0.75000  0.52287  0.81295  Biso   1.000  Te
  Te5      1.0000 0.75000  0.68274  0.48086  Biso   1.000  Te
  Te6      1.0000 0.75000  0.18274  0.01914  Biso   1.000  Te
  Te7      1.0000 0.25000  0.31726  0.51914  Biso   1.000  Te
  Te8      1.0000 0.25000  0.81726  0.98086  Biso   1.000  Te
