data_image0
_cell_length_a       6.0747
_cell_length_b       6.30677
_cell_length_c       9.59102
_cell_angle_alpha    90
_cell_angle_beta     90
_cell_angle_gamma    90

_symmetry_space_group_name_H-M    "P 1"
_symmetry_int_tables_number       1

loop_
  _symmetry_equiv_pos_as_xyz
  'x, y, z'

loop_
  _atom_site_label
  _atom_site_occupancy
  _atom_site_fract_x
  _atom_site_fract_y
  _atom_site_fract_z
  _atom_site_thermal_displace_type
  _atom_site_B_iso_or_equiv
  _atom_site_type_symbol
  Ag1      1.0000 0.25220  0.99909  0.49621  Biso   1.000  Ag
  Ag2      1.0000 0.75220  0.50091  0.99621  Biso   1.000  Ag
  Ag3      1.0000 0.24780  0.49909  0.99621  Biso   1.000  Ag
  Ag4      1.0000 0.74780  0.00091  0.49621  Biso   1.000  Ag
  Ag5      1.0000 0.03126  0.24473  0.25355  Biso   1.000  Ag
  Ag6      1.0000 0.53126  0.25527  0.75355  Biso   1.000  Ag
  Ag7      1.0000 0.46874  0.74473  0.75355  Biso   1.000  Ag
  Ag8      1.0000 0.96874  0.75527  0.25355  Biso   1.000  Ag
  Bi1      1.0000 0.00000  0.00000  0.89696  Biso   1.000  Bi
  Bi2      1.0000 0.50000  0.50000  0.39696  Biso   1.000  Bi
  Bi3      1.0000 0.00000  0.50000  0.60618  Biso   1.000  Bi
  Bi4      1.0000 0.50000  0.00000  0.10618  Biso   1.000  Bi
  O1       1.0000 0.82376  0.18728  0.05855  Biso   1.000  O 
  O2       1.0000 0.32376  0.31272  0.55855  Biso   1.000  O 
  O3       1.0000 0.67624  0.68728  0.55855  Biso   1.000  O 
  O4       1.0000 0.17624  0.81272  0.05855  Biso   1.000  O 
  O5       1.0000 0.19554  0.68242  0.43225  Biso   1.000  O 
  O6       1.0000 0.69554  0.81758  0.93225  Biso   1.000  O 
  O7       1.0000 0.30446  0.18242  0.93225  Biso   1.000  O 
  O8       1.0000 0.80446  0.31758  0.43225  Biso   1.000  O 
  O9       1.0000 0.39014  0.28311  0.24048  Biso   1.000  O 
  O10      1.0000 0.89014  0.21689  0.74048  Biso   1.000  O 
  O11      1.0000 0.10986  0.78311  0.74048  Biso   1.000  O 
  O12      1.0000 0.60986  0.71689  0.24048  Biso   1.000  O 
