data_image0
_cell_length_a       5.60262
_cell_length_b       5.60265
_cell_length_c       7.40471
_cell_angle_alpha    90
_cell_angle_beta     89.9996
_cell_angle_gamma    120.001

_symmetry_space_group_name_H-M    "P 1"
_symmetry_int_tables_number       1

loop_
  _symmetry_equiv_pos_as_xyz
  'x, y, z'

loop_
  _atom_site_label
  _atom_site_occupancy
  _atom_site_fract_x
  _atom_site_fract_y
  _atom_site_fract_z
  _atom_site_thermal_displace_type
  _atom_site_B_iso_or_equiv
  _atom_site_type_symbol
  Ag1      1.0000 0.66667  0.33334  0.68696  Biso   1.000  Ag
  Ag2      1.0000 0.33333  0.66666  0.31304  Biso   1.000  Ag
  Ba1      1.0000 0.00000  0.00000  0.00000  Biso   1.000  Ba
  Mn1      1.0000 0.00000  0.00000  0.50000  Biso   1.000  Mn
  V1       1.0000 0.66666  0.33333  0.24778  Biso   1.000  V 
  V2       1.0000 0.33334  0.66667  0.75222  Biso   1.000  V 
  O1       1.0000 0.74569  0.66564  0.31812  Biso   1.000  O 
  O2       1.0000 0.91996  0.25430  0.31811  Biso   1.000  O 
  O3       1.0000 0.33436  0.08004  0.31811  Biso   1.000  O 
  O4       1.0000 0.25431  0.33436  0.68188  Biso   1.000  O 
  O5       1.0000 0.08004  0.74570  0.68189  Biso   1.000  O 
  O6       1.0000 0.66564  0.91996  0.68189  Biso   1.000  O 
  O7       1.0000 0.66666  0.33333  0.01807  Biso   1.000  O 
  O8       1.0000 0.33334  0.66667  0.98193  Biso   1.000  O 
