data_image0
_cell_length_a       6.38445
_cell_length_b       6.38445
_cell_length_c       6.38445
_cell_angle_alpha    115.218
_cell_angle_beta     115.218
_cell_angle_gamma    98.5044

_symmetry_space_group_name_H-M    "P 1"
_symmetry_int_tables_number       1

loop_
  _symmetry_equiv_pos_as_xyz
  'x, y, z'

loop_
  _atom_site_label
  _atom_site_occupancy
  _atom_site_fract_x
  _atom_site_fract_y
  _atom_site_fract_z
  _atom_site_thermal_displace_type
  _atom_site_B_iso_or_equiv
  _atom_site_type_symbol
  Ba1      1.0000 0.00000  0.00000  0.00000  Biso   1.000  Ba
  Ag1      1.0000 0.25000  0.75000  0.50000  Biso   1.000  Ag
  Ag2      1.0000 0.75000  0.25000  0.50000  Biso   1.000  Ag
  Ge1      1.0000 0.50000  0.50000  0.00000  Biso   1.000  Ge
  S1       1.0000 0.15485  0.15485  0.61981  Biso   1.000  S 
  S2       1.0000 0.53504  0.53504  0.38019  Biso   1.000  S 
  S3       1.0000 0.46496  0.84515  0.00000  Biso   1.000  S 
  S4       1.0000 0.84515  0.46496  0.00000  Biso   1.000  S 
