data_image0
_cell_length_a       8.36265
_cell_length_b       8.36265
_cell_length_c       6.62454
_cell_angle_alpha    90
_cell_angle_beta     90
_cell_angle_gamma    133.417

_symmetry_space_group_name_H-M    "P 1"
_symmetry_int_tables_number       1

loop_
  _symmetry_equiv_pos_as_xyz
  'x, y, z'

loop_
  _atom_site_label
  _atom_site_occupancy
  _atom_site_fract_x
  _atom_site_fract_y
  _atom_site_fract_z
  _atom_site_thermal_displace_type
  _atom_site_B_iso_or_equiv
  _atom_site_type_symbol
  Cs1      1.0000 0.50000  1.00000  0.25902  Biso   1.000  Cs
  Cs2      1.0000 1.00000  0.50000  0.74098  Biso   1.000  Cs
  Ag1      1.0000 0.00000  0.00000  0.50000  Biso   1.000  Ag
  Ag2      1.0000 0.50000  0.50000  0.00000  Biso   1.000  Ag
  Zr1      1.0000 0.00000  0.00000  0.00000  Biso   1.000  Zr
  Te1      1.0000 0.86458  0.65418  0.24030  Biso   1.000  Te
  Te2      1.0000 0.13542  0.34582  0.24030  Biso   1.000  Te
  Te3      1.0000 0.65418  0.86458  0.75970  Biso   1.000  Te
  Te4      1.0000 0.34582  0.13542  0.75970  Biso   1.000  Te
