data_image0
_cell_length_a       6.69477
_cell_length_b       8.07004
_cell_length_c       13.9948
_cell_angle_alpha    90
_cell_angle_beta     90
_cell_angle_gamma    90

_symmetry_space_group_name_H-M    "P 1"
_symmetry_int_tables_number       1

loop_
  _symmetry_equiv_pos_as_xyz
  'x, y, z'

loop_
  _atom_site_label
  _atom_site_occupancy
  _atom_site_fract_x
  _atom_site_fract_y
  _atom_site_fract_z
  _atom_site_thermal_displace_type
  _atom_site_B_iso_or_equiv
  _atom_site_type_symbol
  Ge1      1.0000 0.21068  0.75747  0.91010  Biso   1.000  Ge
  Ge2      1.0000 0.71068  0.24253  0.08990  Biso   1.000  Ge
  Ge3      1.0000 0.71068  0.25747  0.58990  Biso   1.000  Ge
  Ge4      1.0000 0.21068  0.74253  0.41010  Biso   1.000  Ge
  Cd1      1.0000 0.20547  0.98753  0.15892  Biso   1.000  Cd
  Cd2      1.0000 0.70547  0.01247  0.84108  Biso   1.000  Cd
  Cd3      1.0000 0.70547  0.48753  0.34108  Biso   1.000  Cd
  Cd4      1.0000 0.20547  0.51247  0.65892  Biso   1.000  Cd
  Ag1      1.0000 0.71511  0.74205  0.07618  Biso   1.000  Ag
  Ag2      1.0000 0.21511  0.25795  0.92382  Biso   1.000  Ag
  Ag3      1.0000 0.21511  0.24205  0.42382  Biso   1.000  Ag
  Ag4      1.0000 0.71511  0.75795  0.57618  Biso   1.000  Ag
  Ag5      1.0000 0.19784  0.49953  0.16118  Biso   1.000  Ag
  Ag6      1.0000 0.69784  0.50047  0.83882  Biso   1.000  Ag
  Ag7      1.0000 0.69784  0.99953  0.33882  Biso   1.000  Ag
  Ag8      1.0000 0.19784  0.00047  0.66118  Biso   1.000  Ag
  S1       1.0000 0.33134  0.74092  0.06089  Biso   1.000  S 
  S2       1.0000 0.83134  0.25908  0.93911  Biso   1.000  S 
  S3       1.0000 0.83134  0.24092  0.43911  Biso   1.000  S 
  S4       1.0000 0.33134  0.75908  0.56089  Biso   1.000  S 
  S5       1.0000 0.32070  0.98925  0.83520  Biso   1.000  S 
  S6       1.0000 0.82070  0.01075  0.16480  Biso   1.000  S 
  S7       1.0000 0.82070  0.48925  0.66480  Biso   1.000  S 
  S8       1.0000 0.32070  0.51075  0.33520  Biso   1.000  S 
  S9       1.0000 0.87271  0.75322  0.90939  Biso   1.000  S 
  S10      1.0000 0.37271  0.24678  0.09061  Biso   1.000  S 
  S11      1.0000 0.37271  0.25322  0.59061  Biso   1.000  S 
  S12      1.0000 0.87271  0.74678  0.40939  Biso   1.000  S 
  S13      1.0000 0.32025  0.52421  0.83543  Biso   1.000  S 
  S14      1.0000 0.82025  0.47579  0.16457  Biso   1.000  S 
  S15      1.0000 0.82025  0.02421  0.66457  Biso   1.000  S 
  S16      1.0000 0.32025  0.97579  0.33543  Biso   1.000  S 
