data_image0
_cell_length_a       6.5147
_cell_length_b       6.5147
_cell_length_c       8.15979
_cell_angle_alpha    90
_cell_angle_beta     90
_cell_angle_gamma    78.547

_symmetry_space_group_name_H-M    "P 1"
_symmetry_int_tables_number       1

loop_
  _symmetry_equiv_pos_as_xyz
  'x, y, z'

loop_
  _atom_site_label
  _atom_site_occupancy
  _atom_site_fract_x
  _atom_site_fract_y
  _atom_site_fract_z
  _atom_site_thermal_displace_type
  _atom_site_B_iso_or_equiv
  _atom_site_type_symbol
  Pd1      1.0000 0.50000  0.50000  0.50000  Biso   1.000  Pd
  Pd2      1.0000 0.00000  0.00000  0.00000  Biso   1.000  Pd
  Ag1      1.0000 0.52821  0.97179  0.75000  Biso   1.000  Ag
  Ag2      1.0000 0.97179  0.52821  0.25000  Biso   1.000  Ag
  Ag3      1.0000 0.47179  0.02821  0.25000  Biso   1.000  Ag
  Ag4      1.0000 0.02821  0.47179  0.75000  Biso   1.000  Ag
  Cl1      1.0000 0.72987  0.72987  0.50000  Biso   1.000  Cl
  Cl2      1.0000 0.22987  0.22987  0.00000  Biso   1.000  Cl
  Cl3      1.0000 0.27013  0.27013  0.50000  Biso   1.000  Cl
  Cl4      1.0000 0.77013  0.77013  0.00000  Biso   1.000  Cl
  Cl5      1.0000 0.69228  0.30772  0.70838  Biso   1.000  Cl
  Cl6      1.0000 0.30772  0.69228  0.29162  Biso   1.000  Cl
  Cl7      1.0000 0.80772  0.19228  0.20838  Biso   1.000  Cl
  Cl8      1.0000 0.19228  0.80772  0.79162  Biso   1.000  Cl
