data_image0
_cell_length_a       9.92257
_cell_length_b       6.91801
_cell_length_c       5.48301
_cell_angle_alpha    90
_cell_angle_beta     90
_cell_angle_gamma    90

_symmetry_space_group_name_H-M    "P 1"
_symmetry_int_tables_number       1

loop_
  _symmetry_equiv_pos_as_xyz
  'x, y, z'

loop_
  _atom_site_label
  _atom_site_occupancy
  _atom_site_fract_x
  _atom_site_fract_y
  _atom_site_fract_z
  _atom_site_thermal_displace_type
  _atom_site_B_iso_or_equiv
  _atom_site_type_symbol
  Ag1      1.0000 0.50000  0.50000  0.50000  Biso   1.000  Ag
  Ag2      1.0000 0.00000  0.50000  0.00000  Biso   1.000  Ag
  Ag3      1.0000 0.50000  0.00000  0.50000  Biso   1.000  Ag
  Ag4      1.0000 0.00000  0.00000  0.00000  Biso   1.000  Ag
  Ag5      1.0000 0.13955  0.25000  0.49137  Biso   1.000  Ag
  Ag6      1.0000 0.63955  0.25000  0.00863  Biso   1.000  Ag
  Ag7      1.0000 0.36045  0.75000  0.99137  Biso   1.000  Ag
  Ag8      1.0000 0.86045  0.75000  0.50863  Biso   1.000  Ag
  Cr1      1.0000 0.31839  0.25000  0.97864  Biso   1.000  Cr
  Cr2      1.0000 0.81839  0.25000  0.52136  Biso   1.000  Cr
  Cr3      1.0000 0.18161  0.75000  0.47864  Biso   1.000  Cr
  Cr4      1.0000 0.68161  0.75000  0.02136  Biso   1.000  Cr
  O1       1.0000 0.15037  0.25000  0.91988  Biso   1.000  O 
  O2       1.0000 0.65037  0.25000  0.58012  Biso   1.000  O 
  O3       1.0000 0.34963  0.75000  0.41988  Biso   1.000  O 
  O4       1.0000 0.84963  0.75000  0.08012  Biso   1.000  O 
  O5       1.0000 0.35353  0.25000  0.27735  Biso   1.000  O 
  O6       1.0000 0.85353  0.25000  0.22265  Biso   1.000  O 
  O7       1.0000 0.14647  0.75000  0.77735  Biso   1.000  O 
  O8       1.0000 0.64647  0.75000  0.72265  Biso   1.000  O 
  O9       1.0000 0.38595  0.44685  0.84906  Biso   1.000  O 
  O10      1.0000 0.88595  0.44685  0.65094  Biso   1.000  O 
  O11      1.0000 0.38595  0.05315  0.84906  Biso   1.000  O 
  O12      1.0000 0.11405  0.94685  0.34906  Biso   1.000  O 
  O13      1.0000 0.61405  0.55315  0.15094  Biso   1.000  O 
  O14      1.0000 0.11405  0.55315  0.34906  Biso   1.000  O 
  O15      1.0000 0.61405  0.94685  0.15094  Biso   1.000  O 
  O16      1.0000 0.88595  0.05315  0.65094  Biso   1.000  O 
