data_image0
_cell_length_a       6.71443
_cell_length_b       7.12659
_cell_length_c       7.89081
_cell_angle_alpha    90
_cell_angle_beta     90
_cell_angle_gamma    90

_symmetry_space_group_name_H-M    "P 1"
_symmetry_int_tables_number       1

loop_
  _symmetry_equiv_pos_as_xyz
  'x, y, z'

loop_
  _atom_site_label
  _atom_site_occupancy
  _atom_site_fract_x
  _atom_site_fract_y
  _atom_site_fract_z
  _atom_site_thermal_displace_type
  _atom_site_B_iso_or_equiv
  _atom_site_type_symbol
  Ag1      1.0000 0.50445  0.67630  0.75629  Biso   1.000  Ag
  Ag2      1.0000 0.50445  0.67630  0.24371  Biso   1.000  Ag
  Ag3      1.0000 0.00445  0.32370  0.74371  Biso   1.000  Ag
  Ag4      1.0000 0.00445  0.32370  0.25629  Biso   1.000  Ag
  Cd1      1.0000 0.48278  0.14683  0.50000  Biso   1.000  Cd
  Cd2      1.0000 0.98278  0.85317  0.00000  Biso   1.000  Cd
  Ge1      1.0000 0.98906  0.82794  0.50000  Biso   1.000  Ge
  Ge2      1.0000 0.48906  0.17206  0.00000  Biso   1.000  Ge
  S1       1.0000 0.88030  0.66637  0.73059  Biso   1.000  S 
  S2       1.0000 0.88030  0.66637  0.26941  Biso   1.000  S 
  S3       1.0000 0.38030  0.33363  0.76941  Biso   1.000  S 
  S4       1.0000 0.38030  0.33363  0.23059  Biso   1.000  S 
  S5       1.0000 0.32655  0.82092  0.50000  Biso   1.000  S 
  S6       1.0000 0.82655  0.17908  0.00000  Biso   1.000  S 
  S7       1.0000 0.86902  0.12402  0.50000  Biso   1.000  S 
  S8       1.0000 0.36902  0.87598  0.00000  Biso   1.000  S 
