data_image0
_cell_length_a       7.93296
_cell_length_b       7.93296
_cell_length_c       7.93296
_cell_angle_alpha    130.603
_cell_angle_beta     130.603
_cell_angle_gamma    72.444

_symmetry_space_group_name_H-M    "P 1"
_symmetry_int_tables_number       1

loop_
  _symmetry_equiv_pos_as_xyz
  'x, y, z'

loop_
  _atom_site_label
  _atom_site_occupancy
  _atom_site_fract_x
  _atom_site_fract_y
  _atom_site_fract_z
  _atom_site_thermal_displace_type
  _atom_site_B_iso_or_equiv
  _atom_site_type_symbol
  Ag1      1.0000 0.25000  0.75000  0.50000  Biso   1.000  Ag
  Ag2      1.0000 0.75000  0.25000  0.50000  Biso   1.000  Ag
  Cd1      1.0000 0.00000  0.00000  0.00000  Biso   1.000  Cd
  I1       1.0000 0.86640  0.86640  0.49032  Biso   1.000  I 
  I2       1.0000 0.37608  0.37608  0.50968  Biso   1.000  I 
  I3       1.0000 0.62392  0.13360  0.00000  Biso   1.000  I 
  I4       1.0000 0.13360  0.62392  0.00000  Biso   1.000  I 
