data_image0
_cell_length_a       9.61357
_cell_length_b       5.30725
_cell_length_c       2.76136
_cell_angle_alpha    82.1545
_cell_angle_beta     90
_cell_angle_gamma    90

_symmetry_space_group_name_H-M    "P 1"
_symmetry_int_tables_number       1

loop_
  _symmetry_equiv_pos_as_xyz
  'x, y, z'

loop_
  _atom_site_label
  _atom_site_occupancy
  _atom_site_fract_x
  _atom_site_fract_y
  _atom_site_fract_z
  _atom_site_thermal_displace_type
  _atom_site_B_iso_or_equiv
  _atom_site_type_symbol
  Ag1      1.0000 0.07077  0.79045  0.20831  Biso   1.000  Ag
  Ag2      1.0000 0.42923  0.79045  0.20831  Biso   1.000  Ag
  Ag3      1.0000 0.92923  0.20955  0.79169  Biso   1.000  Ag
  Ag4      1.0000 0.57077  0.20955  0.79169  Biso   1.000  Ag
  O1       1.0000 0.25000  0.03357  0.08688  Biso   1.000  O 
  O2       1.0000 0.75000  0.96643  0.91312  Biso   1.000  O 
  O3       1.0000 0.63423  0.62072  0.28317  Biso   1.000  O 
  O4       1.0000 0.86577  0.62072  0.28317  Biso   1.000  O 
  O5       1.0000 0.36577  0.37928  0.71683  Biso   1.000  O 
  O6       1.0000 0.13423  0.37928  0.71683  Biso   1.000  O 
  C1       1.0000 0.75000  0.73654  0.16372  Biso   1.000  C 
  C2       1.0000 0.25000  0.26346  0.83628  Biso   1.000  C 
