data_image0
_cell_length_a       6.33554
_cell_length_b       7.66984
_cell_length_c       12.1369
_cell_angle_alpha    62.8993
_cell_angle_beta     90
_cell_angle_gamma    90

_symmetry_space_group_name_H-M    "P 1"
_symmetry_int_tables_number       1

loop_
  _symmetry_equiv_pos_as_xyz
  'x, y, z'

loop_
  _atom_site_label
  _atom_site_occupancy
  _atom_site_fract_x
  _atom_site_fract_y
  _atom_site_fract_z
  _atom_site_thermal_displace_type
  _atom_site_B_iso_or_equiv
  _atom_site_type_symbol
  Ag1      1.0000 0.94424  0.34686  0.32993  Biso   1.000  Ag
  Ag2      1.0000 0.05576  0.34686  0.82993  Biso   1.000  Ag
  Ag3      1.0000 0.97232  0.49704  0.03125  Biso   1.000  Ag
  Ag4      1.0000 0.02768  0.49704  0.53125  Biso   1.000  Ag
  Fe1      1.0000 0.48856  0.89120  0.18733  Biso   1.000  Fe
  Fe2      1.0000 0.51144  0.89120  0.68733  Biso   1.000  Fe
  C1       1.0000 0.30194  0.67606  0.22494  Biso   1.000  C 
  C2       1.0000 0.69806  0.67606  0.72494  Biso   1.000  C 
  C3       1.0000 0.64867  0.77048  0.10694  Biso   1.000  C 
  C4       1.0000 0.35133  0.77048  0.60694  Biso   1.000  C 
  C5       1.0000 0.70619  0.08624  0.13490  Biso   1.000  C 
  C6       1.0000 0.29381  0.08624  0.63490  Biso   1.000  C 
  C7       1.0000 0.65885  0.73335  0.32837  Biso   1.000  C 
  C8       1.0000 0.34115  0.73335  0.82837  Biso   1.000  C 
  C9       1.0000 0.35379  0.03756  0.03060  Biso   1.000  C 
  C10      1.0000 0.64621  0.03756  0.53060  Biso   1.000  C 
  N1       1.0000 0.18649  0.54402  0.25138  Biso   1.000  N 
  N2       1.0000 0.81351  0.54402  0.75138  Biso   1.000  N 
  N3       1.0000 0.74550  0.68913  0.06214  Biso   1.000  N 
  N4       1.0000 0.25450  0.68913  0.56214  Biso   1.000  N 
  N5       1.0000 0.83017  0.21284  0.10496  Biso   1.000  N 
  N6       1.0000 0.16983  0.21284  0.60496  Biso   1.000  N 
  N7       1.0000 0.76774  0.63999  0.41259  Biso   1.000  N 
  N8       1.0000 0.23226  0.63999  0.91259  Biso   1.000  N 
  N9       1.0000 0.27046  0.13693  0.93672  Biso   1.000  N 
  N10      1.0000 0.72954  0.13693  0.43672  Biso   1.000  N 
  N11      1.0000 0.35590  0.99386  0.25967  Biso   1.000  N 
  N12      1.0000 0.64410  0.99386  0.75967  Biso   1.000  N 
  O1       1.0000 0.26973  0.06844  0.31030  Biso   1.000  O 
  O2       1.0000 0.73027  0.06844  0.81030  Biso   1.000  O 
