data_image0
_cell_length_a       7.27731
_cell_length_b       10.6346
_cell_length_c       12.7761
_cell_angle_alpha    77.675
_cell_angle_beta     90
_cell_angle_gamma    90

_symmetry_space_group_name_H-M    "P 1"
_symmetry_int_tables_number       1

loop_
  _symmetry_equiv_pos_as_xyz
  'x, y, z'

loop_
  _atom_site_label
  _atom_site_occupancy
  _atom_site_fract_x
  _atom_site_fract_y
  _atom_site_fract_z
  _atom_site_thermal_displace_type
  _atom_site_B_iso_or_equiv
  _atom_site_type_symbol
  Cs1      1.0000 0.25000  0.54128  0.34236  Biso   1.000  Cs
  Cs2      1.0000 0.75000  0.45872  0.65764  Biso   1.000  Cs
  Cs3      1.0000 0.25000  0.41999  0.92217  Biso   1.000  Cs
  Cs4      1.0000 0.75000  0.58001  0.07783  Biso   1.000  Cs
  Cs5      1.0000 0.25000  0.84776  0.55487  Biso   1.000  Cs
  Cs6      1.0000 0.75000  0.15224  0.44513  Biso   1.000  Cs
  Sb1      1.0000 0.75000  0.86562  0.78211  Biso   1.000  Sb
  Sb2      1.0000 0.25000  0.13438  0.21789  Biso   1.000  Sb
  Sb3      1.0000 0.25000  0.82203  0.88683  Biso   1.000  Sb
  Sb4      1.0000 0.75000  0.17797  0.11317  Biso   1.000  Sb
  Sb5      1.0000 0.25000  0.22630  0.62500  Biso   1.000  Sb
  Sb6      1.0000 0.75000  0.77370  0.37500  Biso   1.000  Sb
  Ag1      1.0000 0.97370  0.13187  0.90158  Biso   1.000  Ag
  Ag2      1.0000 0.47370  0.86814  0.09842  Biso   1.000  Ag
  Ag3      1.0000 0.02630  0.86814  0.09842  Biso   1.000  Ag
  Ag4      1.0000 0.52630  0.13187  0.90158  Biso   1.000  Ag
  S1       1.0000 0.75000  0.91150  0.96965  Biso   1.000  S 
  S2       1.0000 0.25000  0.08850  0.03035  Biso   1.000  S 
  S3       1.0000 0.00366  0.69995  0.81067  Biso   1.000  S 
  S4       1.0000 0.50366  0.30005  0.18933  Biso   1.000  S 
  S5       1.0000 0.99634  0.30005  0.18933  Biso   1.000  S 
  S6       1.0000 0.49634  0.69995  0.81067  Biso   1.000  S 
  S7       1.0000 0.25000  0.68650  0.06613  Biso   1.000  S 
  S8       1.0000 0.75000  0.31350  0.93387  Biso   1.000  S 
  S9       1.0000 0.98103  0.12222  0.70744  Biso   1.000  S 
  S10      1.0000 0.48103  0.87778  0.29256  Biso   1.000  S 
  S11      1.0000 0.01897  0.87778  0.29256  Biso   1.000  S 
  S12      1.0000 0.51897  0.12222  0.70744  Biso   1.000  S 
  S13      1.0000 0.25000  0.44451  0.63401  Biso   1.000  S 
  S14      1.0000 0.75000  0.55549  0.36599  Biso   1.000  S 
  S15      1.0000 0.25000  0.19133  0.44825  Biso   1.000  S 
  S16      1.0000 0.75000  0.80867  0.55175  Biso   1.000  S 
