data_image0
_cell_length_a       7.75856
_cell_length_b       8.5796
_cell_length_c       8.71663
_cell_angle_alpha    65.7682
_cell_angle_beta     87.596
_cell_angle_gamma    87.6053

_symmetry_space_group_name_H-M    "P 1"
_symmetry_int_tables_number       1

loop_
  _symmetry_equiv_pos_as_xyz
  'x, y, z'

loop_
  _atom_site_label
  _atom_site_occupancy
  _atom_site_fract_x
  _atom_site_fract_y
  _atom_site_fract_z
  _atom_site_thermal_displace_type
  _atom_site_B_iso_or_equiv
  _atom_site_type_symbol
  Ag1      1.0000 0.92640  0.76121  0.00559  Biso   1.000  Ag
  Ag2      1.0000 0.07360  0.23879  0.99441  Biso   1.000  Ag
  Ag3      1.0000 0.55488  0.25644  0.54605  Biso   1.000  Ag
  Ag4      1.0000 0.44512  0.74356  0.45395  Biso   1.000  Ag
  Cu1      1.0000 0.50000  0.50000  1.00000  Biso   1.000  Cu
  Cu2      1.0000 0.00000  1.00000  0.50000  Biso   1.000  Cu
  N1       1.0000 0.72234  0.35627  0.82562  Biso   1.000  N 
  N2       1.0000 0.27766  0.64373  0.17438  Biso   1.000  N 
  N3       1.0000 0.59164  0.83499  0.79773  Biso   1.000  N 
  N4       1.0000 0.40836  0.16501  0.20227  Biso   1.000  N 
  N5       1.0000 0.19732  0.09080  0.70681  Biso   1.000  N 
  N6       1.0000 0.80268  0.90920  0.29319  Biso   1.000  N 
  N7       1.0000 0.89286  0.34652  0.31990  Biso   1.000  N 
  N8       1.0000 0.10714  0.65348  0.68010  Biso   1.000  N 
  O1       1.0000 0.70962  0.37558  0.96543  Biso   1.000  O 
  O2       1.0000 0.29038  0.62442  0.03457  Biso   1.000  O 
  O3       1.0000 0.60013  0.40764  0.72456  Biso   1.000  O 
  O4       1.0000 0.39987  0.59236  0.27544  Biso   1.000  O 
  O5       1.0000 0.85712  0.28551  0.79723  Biso   1.000  O 
  O6       1.0000 0.14288  0.71449  0.20277  Biso   1.000  O 
  O7       1.0000 0.64507  0.70341  0.93318  Biso   1.000  O 
  O8       1.0000 0.35493  0.29659  0.06682  Biso   1.000  O 
  O9       1.0000 0.67039  0.97050  0.75802  Biso   1.000  O 
  O10      1.0000 0.32961  0.02950  0.24198  Biso   1.000  O 
  O11      1.0000 0.46916  0.81584  0.72010  Biso   1.000  O 
  O12      1.0000 0.53084  0.18416  0.27990  Biso   1.000  O 
  O13      1.0000 0.06353  0.99854  0.71918  Biso   1.000  O 
  O14      1.0000 0.93647  0.00146  0.28082  Biso   1.000  O 
  O15      1.0000 0.26340  0.17132  0.56163  Biso   1.000  O 
  O16      1.0000 0.73660  0.82868  0.43837  Biso   1.000  O 
  O17      1.0000 0.25290  0.09495  0.83672  Biso   1.000  O 
  O18      1.0000 0.74710  0.90505  0.16328  Biso   1.000  O 
  O19      1.0000 0.85045  0.20778  0.45367  Biso   1.000  O 
  O20      1.0000 0.14955  0.79222  0.54633  Biso   1.000  O 
  O21      1.0000 0.02892  0.34428  0.23917  Biso   1.000  O 
  O22      1.0000 0.97108  0.65572  0.76083  Biso   1.000  O 
  O23      1.0000 0.79217  0.47278  0.28379  Biso   1.000  O 
  O24      1.0000 0.20783  0.52722  0.71621  Biso   1.000  O 
