data_image0
_cell_length_a       10.49
_cell_length_b       10.49
_cell_length_c       5.04953
_cell_angle_alpha    90
_cell_angle_beta     90
_cell_angle_gamma    90

_symmetry_space_group_name_H-M    "P 1"
_symmetry_int_tables_number       1

loop_
  _symmetry_equiv_pos_as_xyz
  'x, y, z'

loop_
  _atom_site_label
  _atom_site_occupancy
  _atom_site_fract_x
  _atom_site_fract_y
  _atom_site_fract_z
  _atom_site_thermal_displace_type
  _atom_site_B_iso_or_equiv
  _atom_site_type_symbol
  Ag1      1.0000 0.00000  0.00000  0.50000  Biso   1.000  Ag
  Ag2      1.0000 0.50000  0.50000  0.50000  Biso   1.000  Ag
  Ag3      1.0000 0.00000  0.50000  0.50000  Biso   1.000  Ag
  Ag4      1.0000 0.50000  0.00000  0.50000  Biso   1.000  Ag
  Ca1      1.0000 0.25000  0.25000  0.50000  Biso   1.000  Ca
  Ca2      1.0000 0.75000  0.75000  0.50000  Biso   1.000  Ca
  V1       1.0000 0.52689  0.25000  0.00000  Biso   1.000  V 
  V2       1.0000 0.75000  0.02689  0.00000  Biso   1.000  V 
  V3       1.0000 0.25000  0.97311  0.00000  Biso   1.000  V 
  V4       1.0000 0.25000  0.52689  0.00000  Biso   1.000  V 
  V5       1.0000 0.75000  0.47311  0.00000  Biso   1.000  V 
  V6       1.0000 0.02689  0.75000  0.00000  Biso   1.000  V 
  V7       1.0000 0.97311  0.25000  0.00000  Biso   1.000  V 
  V8       1.0000 0.47311  0.75000  0.00000  Biso   1.000  V 
  O1       1.0000 0.62949  0.37051  0.14804  Biso   1.000  O 
  O2       1.0000 0.87051  0.12949  0.14804  Biso   1.000  O 
  O3       1.0000 0.37051  0.87051  0.14804  Biso   1.000  O 
  O4       1.0000 0.12949  0.62949  0.14804  Biso   1.000  O 
  O5       1.0000 0.12949  0.87051  0.85196  Biso   1.000  O 
  O6       1.0000 0.62949  0.12949  0.85196  Biso   1.000  O 
  O7       1.0000 0.87051  0.37051  0.85196  Biso   1.000  O 
  O8       1.0000 0.37051  0.62949  0.85196  Biso   1.000  O 
  O9       1.0000 0.18123  0.06047  0.24135  Biso   1.000  O 
  O10      1.0000 0.56047  0.68123  0.24135  Biso   1.000  O 
  O11      1.0000 0.06047  0.31877  0.24135  Biso   1.000  O 
  O12      1.0000 0.43953  0.18123  0.24135  Biso   1.000  O 
  O13      1.0000 0.93953  0.81877  0.24135  Biso   1.000  O 
  O14      1.0000 0.43953  0.31877  0.75865  Biso   1.000  O 
  O15      1.0000 0.93953  0.68123  0.75865  Biso   1.000  O 
  O16      1.0000 0.56047  0.81877  0.75865  Biso   1.000  O 
  O17      1.0000 0.06047  0.18123  0.75865  Biso   1.000  O 
  O18      1.0000 0.68123  0.56047  0.75865  Biso   1.000  O 
  O19      1.0000 0.31877  0.06047  0.75865  Biso   1.000  O 
  O20      1.0000 0.18123  0.43953  0.75865  Biso   1.000  O 
  O21      1.0000 0.81877  0.93953  0.75865  Biso   1.000  O 
  O22      1.0000 0.31877  0.43953  0.24135  Biso   1.000  O 
  O23      1.0000 0.68123  0.93953  0.24135  Biso   1.000  O 
  O24      1.0000 0.81877  0.56047  0.24135  Biso   1.000  O 
