data_image0
_cell_length_a       9.22987
_cell_length_b       3.24895
_cell_length_c       6.33034
_cell_angle_alpha    90
_cell_angle_beta     90
_cell_angle_gamma    98.7062

_symmetry_space_group_name_H-M    "P 1"
_symmetry_int_tables_number       1

loop_
  _symmetry_equiv_pos_as_xyz
  'x, y, z'

loop_
  _atom_site_label
  _atom_site_occupancy
  _atom_site_fract_x
  _atom_site_fract_y
  _atom_site_fract_z
  _atom_site_thermal_displace_type
  _atom_site_B_iso_or_equiv
  _atom_site_type_symbol
  Ag1      1.0000 0.15229  0.62666  0.51003  Biso   1.000  Ag
  Ag2      1.0000 0.65229  0.62666  0.98997  Biso   1.000  Ag
  Ag3      1.0000 0.84771  0.37334  0.48997  Biso   1.000  Ag
  Ag4      1.0000 0.34771  0.37334  0.01003  Biso   1.000  Ag
  C1       1.0000 0.00365  0.90119  0.11033  Biso   1.000  C 
  C2       1.0000 0.50365  0.90119  0.38967  Biso   1.000  C 
  C3       1.0000 0.99635  0.09881  0.88967  Biso   1.000  C 
  C4       1.0000 0.49635  0.09881  0.61033  Biso   1.000  C 
  O1       1.0000 0.10993  0.33967  0.82873  Biso   1.000  O 
  O2       1.0000 0.60993  0.33967  0.67127  Biso   1.000  O 
  O3       1.0000 0.89007  0.66033  0.17127  Biso   1.000  O 
  O4       1.0000 0.39007  0.66033  0.32873  Biso   1.000  O 
  O5       1.0000 0.12198  0.99054  0.21241  Biso   1.000  O 
  O6       1.0000 0.62198  0.99054  0.28759  Biso   1.000  O 
  O7       1.0000 0.87802  0.00946  0.78759  Biso   1.000  O 
  O8       1.0000 0.37802  0.00946  0.71241  Biso   1.000  O 
