data_image0
_cell_length_a       7.9125
_cell_length_b       7.49003
_cell_length_c       8.5445
_cell_angle_alpha    75.4572
_cell_angle_beta     90
_cell_angle_gamma    90

_symmetry_space_group_name_H-M    "P 1"
_symmetry_int_tables_number       1

loop_
  _symmetry_equiv_pos_as_xyz
  'x, y, z'

loop_
  _atom_site_label
  _atom_site_occupancy
  _atom_site_fract_x
  _atom_site_fract_y
  _atom_site_fract_z
  _atom_site_thermal_displace_type
  _atom_site_B_iso_or_equiv
  _atom_site_type_symbol
  Ag1      1.0000 0.00000  0.00000  0.50000  Biso   1.000  Ag
  Ag2      1.0000 0.00000  0.00000  0.00000  Biso   1.000  Ag
  Ag3      1.0000 0.58156  1.00000  0.25000  Biso   1.000  Ag
  Ag4      1.0000 0.41844  1.00000  0.75000  Biso   1.000  Ag
  Cu1      1.0000 0.74489  0.50000  0.75000  Biso   1.000  Cu
  Cu2      1.0000 0.25511  0.50000  0.25000  Biso   1.000  Cu
  Cs1      1.0000 0.75162  0.50000  0.25000  Biso   1.000  Cs
  Cs2      1.0000 0.24838  0.50000  0.75000  Biso   1.000  Cs
  N1       1.0000 0.87022  0.32869  0.65026  Biso   1.000  N 
  N2       1.0000 0.87022  0.67131  0.84974  Biso   1.000  N 
  N3       1.0000 0.12978  0.67131  0.34974  Biso   1.000  N 
  N4       1.0000 0.12978  0.32869  0.15026  Biso   1.000  N 
  N5       1.0000 0.61739  0.32535  0.92553  Biso   1.000  N 
  N6       1.0000 0.61739  0.67465  0.57447  Biso   1.000  N 
  N7       1.0000 0.38261  0.67465  0.07447  Biso   1.000  N 
  N8       1.0000 0.38261  0.32535  0.42553  Biso   1.000  N 
  C1       1.0000 0.91896  0.20871  0.59591  Biso   1.000  C 
  C2       1.0000 0.91896  0.79129  0.90409  Biso   1.000  C 
  C3       1.0000 0.08104  0.79129  0.40409  Biso   1.000  C 
  C4       1.0000 0.08104  0.20871  0.09591  Biso   1.000  C 
  C5       1.0000 0.59628  0.20359  0.04118  Biso   1.000  C 
  C6       1.0000 0.59628  0.79641  0.45882  Biso   1.000  C 
  C7       1.0000 0.40372  0.79641  0.95882  Biso   1.000  C 
  C8       1.0000 0.40372  0.20359  0.54118  Biso   1.000  C 
