data_image0
_cell_length_a       5.07394
_cell_length_b       6.67512
_cell_length_c       12.7792
_cell_angle_alpha    90
_cell_angle_beta     90
_cell_angle_gamma    90

_symmetry_space_group_name_H-M    "P 1"
_symmetry_int_tables_number       1

loop_
  _symmetry_equiv_pos_as_xyz
  'x, y, z'

loop_
  _atom_site_label
  _atom_site_occupancy
  _atom_site_fract_x
  _atom_site_fract_y
  _atom_site_fract_z
  _atom_site_thermal_displace_type
  _atom_site_B_iso_or_equiv
  _atom_site_type_symbol
  Ag1      1.0000 0.25000  0.76289  0.46923  Biso   1.000  Ag
  Ag2      1.0000 0.25000  0.26289  0.03077  Biso   1.000  Ag
  Ag3      1.0000 0.75000  0.23711  0.53077  Biso   1.000  Ag
  Ag4      1.0000 0.75000  0.73711  0.96923  Biso   1.000  Ag
  Ag5      1.0000 0.75000  0.64168  0.25123  Biso   1.000  Ag
  Ag6      1.0000 0.75000  0.14168  0.24877  Biso   1.000  Ag
  Ag7      1.0000 0.25000  0.35832  0.74877  Biso   1.000  Ag
  Ag8      1.0000 0.25000  0.85832  0.75123  Biso   1.000  Ag
  Cl1      1.0000 0.75000  0.89685  0.40850  Biso   1.000  Cl
  Cl2      1.0000 0.75000  0.39685  0.09150  Biso   1.000  Cl
  Cl3      1.0000 0.25000  0.10315  0.59150  Biso   1.000  Cl
  Cl4      1.0000 0.25000  0.60315  0.90850  Biso   1.000  Cl
  N1       1.0000 0.25000  0.85715  0.14563  Biso   1.000  N 
  N2       1.0000 0.25000  0.35715  0.35437  Biso   1.000  N 
  N3       1.0000 0.75000  0.14285  0.85437  Biso   1.000  N 
  N4       1.0000 0.75000  0.64285  0.64563  Biso   1.000  N 
  O1       1.0000 0.25000  0.70798  0.20683  Biso   1.000  O 
  O2       1.0000 0.25000  0.20798  0.29317  Biso   1.000  O 
  O3       1.0000 0.75000  0.29202  0.79317  Biso   1.000  O 
  O4       1.0000 0.75000  0.79202  0.70683  Biso   1.000  O 
  O5       1.0000 0.46633  0.93387  0.11474  Biso   1.000  O 
  O6       1.0000 0.03367  0.43387  0.38526  Biso   1.000  O 
  O7       1.0000 0.96633  0.06613  0.88526  Biso   1.000  O 
  O8       1.0000 0.53367  0.56613  0.61474  Biso   1.000  O 
  O9       1.0000 0.53367  0.06613  0.88526  Biso   1.000  O 
  O10      1.0000 0.96633  0.56613  0.61474  Biso   1.000  O 
  O11      1.0000 0.03367  0.93387  0.11474  Biso   1.000  O 
  O12      1.0000 0.46633  0.43387  0.38526  Biso   1.000  O 
