data_image0
_cell_length_a       9.35855
_cell_length_b       9.3587
_cell_length_c       6.36567
_cell_angle_alpha    90.0003
_cell_angle_beta     89.9999
_cell_angle_gamma    120.001

_symmetry_space_group_name_H-M    "P 1"
_symmetry_int_tables_number       1

loop_
  _symmetry_equiv_pos_as_xyz
  'x, y, z'

loop_
  _atom_site_label
  _atom_site_occupancy
  _atom_site_fract_x
  _atom_site_fract_y
  _atom_site_fract_z
  _atom_site_thermal_displace_type
  _atom_site_B_iso_or_equiv
  _atom_site_type_symbol
  Ag1      1.0000 0.02179  0.67093  0.49593  Biso   1.000  Ag
  Ag2      1.0000 0.97821  0.64914  0.99593  Biso   1.000  Ag
  Ag3      1.0000 0.35085  0.32906  0.99593  Biso   1.000  Ag
  Ag4      1.0000 0.67093  0.02178  0.99593  Biso   1.000  Ag
  Ag5      1.0000 0.64915  0.97821  0.49593  Biso   1.000  Ag
  Ag6      1.0000 0.32907  0.35085  0.49593  Biso   1.000  Ag
  Ag7      1.0000 0.66598  0.69700  0.28297  Biso   1.000  Ag
  Ag8      1.0000 0.33402  0.03102  0.78297  Biso   1.000  Ag
  Ag9      1.0000 0.96898  0.30298  0.78297  Biso   1.000  Ag
  Ag10     1.0000 0.69701  0.66598  0.78297  Biso   1.000  Ag
  Ag11     1.0000 0.03102  0.33400  0.28297  Biso   1.000  Ag
  Ag12     1.0000 0.30299  0.96897  0.28297  Biso   1.000  Ag
  C1       1.0000 0.00000  1.00000  0.88206  Biso   1.000  C 
  C2       1.0000 1.00000  1.00000  0.38206  Biso   1.000  C 
  O1       1.0000 0.08138  0.16003  0.88165  Biso   1.000  O 
  O2       1.0000 0.91862  0.07866  0.38165  Biso   1.000  O 
  O3       1.0000 0.92135  0.83996  0.38166  Biso   1.000  O 
  O4       1.0000 0.16003  0.08137  0.38166  Biso   1.000  O 
  O5       1.0000 0.07865  0.91861  0.88166  Biso   1.000  O 
  O6       1.0000 0.83997  0.92134  0.88166  Biso   1.000  O 
  C3       1.0000 0.66665  0.33332  0.22320  Biso   1.000  C 
  C4       1.0000 0.33335  0.66666  0.72320  Biso   1.000  C 
  O7       1.0000 0.76265  0.49308  0.22515  Biso   1.000  O 
  O8       1.0000 0.23735  0.73044  0.72515  Biso   1.000  O 
  O9       1.0000 0.26956  0.50691  0.72515  Biso   1.000  O 
  O10      1.0000 0.49308  0.76264  0.72515  Biso   1.000  O 
  O11      1.0000 0.73044  0.23735  0.22515  Biso   1.000  O 
  O12      1.0000 0.50692  0.26956  0.22515  Biso   1.000  O 
  C5       1.0000 0.66666  0.33332  0.71083  Biso   1.000  C 
  C6       1.0000 0.33334  0.66667  0.21083  Biso   1.000  C 
  O13      1.0000 0.82677  0.41923  0.71129  Biso   1.000  O 
  O14      1.0000 0.17323  0.59246  0.21130  Biso   1.000  O 
  O15      1.0000 0.40754  0.58076  0.21129  Biso   1.000  O 
  O16      1.0000 0.41922  0.82676  0.21130  Biso   1.000  O 
  O17      1.0000 0.59246  0.17323  0.71129  Biso   1.000  O 
  O18      1.0000 0.58078  0.40754  0.71130  Biso   1.000  O 
