data_image0
_cell_length_a       6.80924
_cell_length_b       6.80924
_cell_length_c       6.80924
_cell_angle_alpha    128.054
_cell_angle_beta     128.054
_cell_angle_gamma    76.5379

_symmetry_space_group_name_H-M    "P 1"
_symmetry_int_tables_number       1

loop_
  _symmetry_equiv_pos_as_xyz
  'x, y, z'

loop_
  _atom_site_label
  _atom_site_occupancy
  _atom_site_fract_x
  _atom_site_fract_y
  _atom_site_fract_z
  _atom_site_thermal_displace_type
  _atom_site_B_iso_or_equiv
  _atom_site_type_symbol
  Ag1      1.0000 0.50000  0.00000  0.50000  Biso   1.000  Ag
  Ag2      1.0000 0.00000  0.00000  0.50000  Biso   1.000  Ag
  Ag3      1.0000 1.00000  0.50000  0.00000  Biso   1.000  Ag
  Ag4      1.0000 0.00000  0.00000  0.00000  Biso   1.000  Ag
  Cu1      1.0000 0.00000  0.50000  0.50000  Biso   1.000  Cu
  Cu2      1.0000 0.50000  0.50000  0.00000  Biso   1.000  Cu
  Cu3      1.0000 0.50000  0.50000  0.50000  Biso   1.000  Cu
  Cu4      1.0000 0.50000  1.00000  0.00000  Biso   1.000  Cu
  O1       1.0000 0.61466  0.86466  0.75000  Biso   1.000  O 
  O2       1.0000 0.86466  0.61466  0.25000  Biso   1.000  O 
  O3       1.0000 0.38534  0.13534  0.25000  Biso   1.000  O 
  O4       1.0000 0.13534  0.38534  0.75000  Biso   1.000  O 
  O5       1.0000 0.37500  0.62500  0.75000  Biso   1.000  O 
  O6       1.0000 0.62500  0.37500  0.25000  Biso   1.000  O 
