data_image0
_cell_length_a       5.54485
_cell_length_b       5.54485
_cell_length_c       15.6192
_cell_angle_alpha    81.5734
_cell_angle_beta     81.5734
_cell_angle_gamma    61.3589

_symmetry_space_group_name_H-M    "P 1"
_symmetry_int_tables_number       1

loop_
  _symmetry_equiv_pos_as_xyz
  'x, y, z'

loop_
  _atom_site_label
  _atom_site_occupancy
  _atom_site_fract_x
  _atom_site_fract_y
  _atom_site_fract_z
  _atom_site_thermal_displace_type
  _atom_site_B_iso_or_equiv
  _atom_site_type_symbol
  Ag1      1.0000 0.29290  0.36215  0.16308  Biso   1.000  Ag
  Ag2      1.0000 0.63785  0.70710  0.33692  Biso   1.000  Ag
  Ag3      1.0000 0.70710  0.63785  0.83692  Biso   1.000  Ag
  Ag4      1.0000 0.36215  0.29290  0.66308  Biso   1.000  Ag
  Ag5      1.0000 0.96887  0.03113  0.25000  Biso   1.000  Ag
  Ag6      1.0000 0.03113  0.96887  0.75000  Biso   1.000  Ag
  Ag7      1.0000 0.00000  0.00000  0.50000  Biso   1.000  Ag
  Ag8      1.0000 0.00000  0.00000  0.00000  Biso   1.000  Ag
  P1       1.0000 0.27518  0.37273  0.37774  Biso   1.000  P 
  P2       1.0000 0.62727  0.72482  0.12226  Biso   1.000  P 
  P3       1.0000 0.72482  0.62727  0.62226  Biso   1.000  P 
  P4       1.0000 0.37273  0.27518  0.87774  Biso   1.000  P 
  O1       1.0000 0.21310  0.67506  0.36010  Biso   1.000  O 
  O2       1.0000 0.32494  0.78690  0.13990  Biso   1.000  O 
  O3       1.0000 0.78690  0.32494  0.63990  Biso   1.000  O 
  O4       1.0000 0.67506  0.21310  0.86010  Biso   1.000  O 
  O5       1.0000 0.01729  0.33175  0.40031  Biso   1.000  O 
  O6       1.0000 0.66825  0.98271  0.09969  Biso   1.000  O 
  O7       1.0000 0.98271  0.66825  0.59969  Biso   1.000  O 
  O8       1.0000 0.33175  0.01729  0.90031  Biso   1.000  O 
  O9       1.0000 0.81690  0.51589  0.18993  Biso   1.000  O 
  O10      1.0000 0.48411  0.18310  0.31007  Biso   1.000  O 
  O11      1.0000 0.18310  0.48411  0.81007  Biso   1.000  O 
  O12      1.0000 0.51589  0.81690  0.68993  Biso   1.000  O 
  F1       1.0000 0.26851  0.43116  0.96519  Biso   1.000  F 
  F2       1.0000 0.56884  0.73149  0.53481  Biso   1.000  F 
  F3       1.0000 0.73149  0.56884  0.03481  Biso   1.000  F 
  F4       1.0000 0.43116  0.26851  0.46519  Biso   1.000  F 
