data_image0
_cell_length_a       5.63438
_cell_length_b       5.63438
_cell_length_c       9.26723
_cell_angle_alpha    89.7098
_cell_angle_beta     89.7098
_cell_angle_gamma    72.7503

_symmetry_space_group_name_H-M    "P 1"
_symmetry_int_tables_number       1

loop_
  _symmetry_equiv_pos_as_xyz
  'x, y, z'

loop_
  _atom_site_label
  _atom_site_occupancy
  _atom_site_fract_x
  _atom_site_fract_y
  _atom_site_fract_z
  _atom_site_thermal_displace_type
  _atom_site_B_iso_or_equiv
  _atom_site_type_symbol
  Ag1      1.0000 0.69026  0.69026  0.61368  Biso   1.000  Ag
  Ag2      1.0000 0.30974  0.30974  0.38632  Biso   1.000  Ag
  Zn1      1.0000 0.50000  0.50000  0.00000  Biso   1.000  Zn
  Zr1      1.0000 0.89157  0.89157  0.20150  Biso   1.000  Zr
  Zr2      1.0000 0.10843  0.10843  0.79850  Biso   1.000  Zr
  F1       1.0000 0.21391  0.61744  0.13750  Biso   1.000  F 
  F2       1.0000 0.61744  0.21391  0.13750  Biso   1.000  F 
  F3       1.0000 0.78609  0.38256  0.86250  Biso   1.000  F 
  F4       1.0000 0.38256  0.78609  0.86250  Biso   1.000  F 
  F5       1.0000 0.99901  0.63819  0.37575  Biso   1.000  F 
  F6       1.0000 0.63819  0.99901  0.37575  Biso   1.000  F 
  F7       1.0000 0.00099  0.36181  0.62425  Biso   1.000  F 
  F8       1.0000 0.36181  0.00099  0.62425  Biso   1.000  F 
  F9       1.0000 0.90222  0.90222  0.71444  Biso   1.000  F 
  F10      1.0000 0.09778  0.09778  0.28556  Biso   1.000  F 
  F11      1.0000 0.68966  0.68966  0.11239  Biso   1.000  F 
  F12      1.0000 0.31034  0.31034  0.88761  Biso   1.000  F 
  F13      1.0000 0.50000  0.50000  0.50000  Biso   1.000  F 
  F14      1.0000 0.00000  0.00000  0.00000  Biso   1.000  F 
