data_image0
_cell_length_a       5.50804
_cell_length_b       5.50804
_cell_length_c       7.39517
_cell_angle_alpha    90
_cell_angle_beta     90
_cell_angle_gamma    120

_symmetry_space_group_name_H-M    "P 1"
_symmetry_int_tables_number       1

loop_
  _symmetry_equiv_pos_as_xyz
  'x, y, z'

loop_
  _atom_site_label
  _atom_site_occupancy
  _atom_site_fract_x
  _atom_site_fract_y
  _atom_site_fract_z
  _atom_site_thermal_displace_type
  _atom_site_B_iso_or_equiv
  _atom_site_type_symbol
  Ag1      1.0000 0.66667  0.33333  0.72463  Biso   1.000  Ag
  Ag2      1.0000 0.33333  0.66667  0.27537  Biso   1.000  Ag
  K1       1.0000 0.00000  0.00000  0.00000  Biso   1.000  K 
  Fe1      1.0000 0.00000  0.00000  0.50000  Biso   1.000  Fe
  V1       1.0000 0.66667  0.33333  0.26656  Biso   1.000  V 
  V2       1.0000 0.33333  0.66667  0.73344  Biso   1.000  V 
  O1       1.0000 0.74766  0.67184  0.34015  Biso   1.000  O 
  O2       1.0000 0.92418  0.25234  0.34015  Biso   1.000  O 
  O3       1.0000 0.32816  0.07582  0.34015  Biso   1.000  O 
  O4       1.0000 0.25234  0.32816  0.65985  Biso   1.000  O 
  O5       1.0000 0.07582  0.74766  0.65985  Biso   1.000  O 
  O6       1.0000 0.67184  0.92418  0.65985  Biso   1.000  O 
  O7       1.0000 0.66667  0.33333  0.03950  Biso   1.000  O 
  O8       1.0000 0.33333  0.66667  0.96050  Biso   1.000  O 
