data_image0
_cell_length_a       7.68894
_cell_length_b       4.88728
_cell_length_c       6.33744
_cell_angle_alpha    85.5421
_cell_angle_beta     90
_cell_angle_gamma    90

_symmetry_space_group_name_H-M    "P 1"
_symmetry_int_tables_number       1

loop_
  _symmetry_equiv_pos_as_xyz
  'x, y, z'

loop_
  _atom_site_label
  _atom_site_occupancy
  _atom_site_fract_x
  _atom_site_fract_y
  _atom_site_fract_z
  _atom_site_thermal_displace_type
  _atom_site_B_iso_or_equiv
  _atom_site_type_symbol
  Ag1      1.0000 0.47633  0.96797  0.28536  Biso   1.000  Ag
  Ag2      1.0000 0.97633  0.03203  0.71464  Biso   1.000  Ag
  Ag3      1.0000 0.07760  0.95895  0.29299  Biso   1.000  Ag
  Ag4      1.0000 0.57760  0.04105  0.70701  Biso   1.000  Ag
  I1       1.0000 0.77207  0.67740  0.48514  Biso   1.000  I 
  I2       1.0000 0.27207  0.32260  0.51486  Biso   1.000  I 
  F1       1.0000 0.94066  0.28216  0.01790  Biso   1.000  F 
  F2       1.0000 0.44066  0.71784  0.98210  Biso   1.000  F 
  O1       1.0000 0.60914  0.26922  0.01028  Biso   1.000  O 
  O2       1.0000 0.10914  0.73078  0.98972  Biso   1.000  O 
  H1       1.0000 0.73865  0.29647  0.02516  Biso   1.000  H 
  H2       1.0000 0.23865  0.70353  0.97484  Biso   1.000  H 
  H3       1.0000 0.54825  0.45381  0.99836  Biso   1.000  H 
  H4       1.0000 0.04825  0.54619  0.00164  Biso   1.000  H 
