data_image0
_cell_length_a       5.50806
_cell_length_b       5.50806
_cell_length_c       7.50674
_cell_angle_alpha    90
_cell_angle_beta     90
_cell_angle_gamma    120

_symmetry_space_group_name_H-M    "P 1"
_symmetry_int_tables_number       1

loop_
  _symmetry_equiv_pos_as_xyz
  'x, y, z'

loop_
  _atom_site_label
  _atom_site_occupancy
  _atom_site_fract_x
  _atom_site_fract_y
  _atom_site_fract_z
  _atom_site_thermal_displace_type
  _atom_site_B_iso_or_equiv
  _atom_site_type_symbol
  Ag1      1.0000 0.66667  0.33333  0.73381  Biso   1.000  Ag
  Ag2      1.0000 0.33333  0.66667  0.26619  Biso   1.000  Ag
  Rb1      1.0000 0.00000  0.00000  0.00000  Biso   1.000  Rb
  Fe1      1.0000 0.00000  0.00000  0.50000  Biso   1.000  Fe
  V1       1.0000 0.66667  0.33333  0.27130  Biso   1.000  V 
  V2       1.0000 0.33333  0.66667  0.72870  Biso   1.000  V 
  O1       1.0000 0.74384  0.67045  0.34379  Biso   1.000  O 
  O2       1.0000 0.92661  0.25616  0.34379  Biso   1.000  O 
  O3       1.0000 0.32955  0.07339  0.34379  Biso   1.000  O 
  O4       1.0000 0.25616  0.32955  0.65621  Biso   1.000  O 
  O5       1.0000 0.07339  0.74384  0.65621  Biso   1.000  O 
  O6       1.0000 0.67045  0.92661  0.65621  Biso   1.000  O 
  O7       1.0000 0.66667  0.33333  0.04699  Biso   1.000  O 
  O8       1.0000 0.33333  0.66667  0.95301  Biso   1.000  O 
