data_image0
_cell_length_a       6.29446
_cell_length_b       6.29446
_cell_length_c       10.23
_cell_angle_alpha    90
_cell_angle_beta     90
_cell_angle_gamma    112.486

_symmetry_space_group_name_H-M    "P 1"
_symmetry_int_tables_number       1

loop_
  _symmetry_equiv_pos_as_xyz
  'x, y, z'

loop_
  _atom_site_label
  _atom_site_occupancy
  _atom_site_fract_x
  _atom_site_fract_y
  _atom_site_fract_z
  _atom_site_thermal_displace_type
  _atom_site_B_iso_or_equiv
  _atom_site_type_symbol
  Pb1      1.0000 0.01639  0.01639  0.50000  Biso   1.000  Pb
  Pb2      1.0000 0.01639  0.01639  0.00000  Biso   1.000  Pb
  Ag1      1.0000 0.41246  0.64695  0.59668  Biso   1.000  Ag
  Ag2      1.0000 0.64695  0.41246  0.40332  Biso   1.000  Ag
  Ag3      1.0000 0.41246  0.64695  0.90332  Biso   1.000  Ag
  Ag4      1.0000 0.64695  0.41246  0.09668  Biso   1.000  Ag
  Ge1      1.0000 0.67275  0.27275  0.75000  Biso   1.000  Ge
  Ge2      1.0000 0.27275  0.67275  0.25000  Biso   1.000  Ge
  S1       1.0000 0.02392  0.25981  0.75000  Biso   1.000  S 
  S2       1.0000 0.25981  0.02392  0.25000  Biso   1.000  S 
  S3       1.0000 0.71774  0.64653  0.75000  Biso   1.000  S 
  S4       1.0000 0.64653  0.71774  0.25000  Biso   1.000  S 
  S5       1.0000 0.48876  0.09358  0.93346  Biso   1.000  S 
  S6       1.0000 0.09358  0.48876  0.06654  Biso   1.000  S 
  S7       1.0000 0.48876  0.09358  0.56654  Biso   1.000  S 
  S8       1.0000 0.09358  0.48876  0.43346  Biso   1.000  S 
