data_image0
_cell_length_a       5.61201
_cell_length_b       7.16583
_cell_length_c       5.54915
_cell_angle_alpha    90.1508
_cell_angle_beta     90
_cell_angle_gamma    90

_symmetry_space_group_name_H-M    "P 1"
_symmetry_int_tables_number       1

loop_
  _symmetry_equiv_pos_as_xyz
  'x, y, z'

loop_
  _atom_site_label
  _atom_site_occupancy
  _atom_site_fract_x
  _atom_site_fract_y
  _atom_site_fract_z
  _atom_site_thermal_displace_type
  _atom_site_B_iso_or_equiv
  _atom_site_type_symbol
  Ag1      1.0000 0.70583  0.25570  0.99422  Biso   1.000  Ag
  Ag2      1.0000 0.29417  0.75570  0.49422  Biso   1.000  Ag
  Ag3      1.0000 0.20180  0.49587  0.99800  Biso   1.000  Ag
  Ag4      1.0000 0.79820  0.99587  0.49800  Biso   1.000  Ag
  Zn1      1.0000 0.18862  0.00095  0.00106  Biso   1.000  Zn
  Zn2      1.0000 0.81138  0.50095  0.50106  Biso   1.000  Zn
  Ge1      1.0000 0.68702  0.75096  0.00213  Biso   1.000  Ge
  Ge2      1.0000 0.31298  0.25096  0.50213  Biso   1.000  Ge
  O1       1.0000 0.62154  0.28742  0.42360  Biso   1.000  O 
  O2       1.0000 0.37846  0.78742  0.92360  Biso   1.000  O 
  O3       1.0000 0.14093  0.45544  0.42466  Biso   1.000  O 
  O4       1.0000 0.85907  0.95544  0.92466  Biso   1.000  O 
  O5       1.0000 0.20586  0.04960  0.34072  Biso   1.000  O 
  O6       1.0000 0.79414  0.54960  0.84072  Biso   1.000  O 
  O7       1.0000 0.70873  0.71206  0.32162  Biso   1.000  O 
  O8       1.0000 0.29127  0.21206  0.82162  Biso   1.000  O 
