data_image0
_cell_length_a       7.47272
_cell_length_b       7.47272
_cell_length_c       12.9877
_cell_angle_alpha    72.9012
_cell_angle_beta     72.9012
_cell_angle_gamma    61.7309

_symmetry_space_group_name_H-M    "P 1"
_symmetry_int_tables_number       1

loop_
  _symmetry_equiv_pos_as_xyz
  'x, y, z'

loop_
  _atom_site_label
  _atom_site_occupancy
  _atom_site_fract_x
  _atom_site_fract_y
  _atom_site_fract_z
  _atom_site_thermal_displace_type
  _atom_site_B_iso_or_equiv
  _atom_site_type_symbol
  Ag1      1.0000 0.79899  0.98027  0.24364  Biso   1.000  Ag
  Ag2      1.0000 0.98027  0.79899  0.74364  Biso   1.000  Ag
  Ag3      1.0000 0.38663  0.80024  0.07849  Biso   1.000  Ag
  Ag4      1.0000 0.80024  0.38663  0.57849  Biso   1.000  Ag
  In1      1.0000 0.31195  0.50995  0.43589  Biso   1.000  In
  In2      1.0000 0.50995  0.31195  0.93589  Biso   1.000  In
  In3      1.0000 0.16481  0.29263  0.23997  Biso   1.000  In
  In4      1.0000 0.29263  0.16481  0.73997  Biso   1.000  In
  Ge1      1.0000 0.39441  0.93337  0.49563  Biso   1.000  Ge
  Ge2      1.0000 0.93337  0.39441  0.99563  Biso   1.000  Ge
  Se1      1.0000 0.59944  0.11950  0.44284  Biso   1.000  Se
  Se2      1.0000 0.11950  0.59944  0.94284  Biso   1.000  Se
  Se3      1.0000 0.16079  0.64662  0.25168  Biso   1.000  Se
  Se4      1.0000 0.64662  0.16079  0.75168  Biso   1.000  Se
  Se5      1.0000 0.06769  0.09402  0.44149  Biso   1.000  Se
  Se6      1.0000 0.09402  0.06769  0.94149  Biso   1.000  Se
  Se7      1.0000 0.82033  0.35294  0.18811  Biso   1.000  Se
  Se8      1.0000 0.35294  0.82033  0.68811  Biso   1.000  Se
  Se9      1.0000 0.04852  0.51262  0.62635  Biso   1.000  Se
  Se10     1.0000 0.51262  0.04852  0.12635  Biso   1.000  Se
  Se11     1.0000 0.60276  0.63732  0.41102  Biso   1.000  Se
  Se12     1.0000 0.63732  0.60276  0.91102  Biso   1.000  Se
