data_image0
_cell_length_a       11.7366
_cell_length_b       11.7366
_cell_length_c       6.34428
_cell_angle_alpha    81.9985
_cell_angle_beta     81.9985
_cell_angle_gamma    142.602

_symmetry_space_group_name_H-M    "P 1"
_symmetry_int_tables_number       1

loop_
  _symmetry_equiv_pos_as_xyz
  'x, y, z'

loop_
  _atom_site_label
  _atom_site_occupancy
  _atom_site_fract_x
  _atom_site_fract_y
  _atom_site_fract_z
  _atom_site_thermal_displace_type
  _atom_site_B_iso_or_equiv
  _atom_site_type_symbol
  Ag1      1.0000 0.46427  0.53573  0.25000  Biso   1.000  Ag
  Ag2      1.0000 0.53573  0.46427  0.75000  Biso   1.000  Ag
  Ag3      1.0000 0.31622  0.68378  0.25000  Biso   1.000  Ag
  Ag4      1.0000 0.68378  0.31622  0.75000  Biso   1.000  Ag
  Ge1      1.0000 0.37744  0.62256  0.75000  Biso   1.000  Ge
  Ge2      1.0000 0.62256  0.37744  0.25000  Biso   1.000  Ge
  Rb1      1.0000 0.93830  0.06170  0.75000  Biso   1.000  Rb
  Rb2      1.0000 0.06170  0.93830  0.25000  Biso   1.000  Rb
  Rb3      1.0000 0.80837  0.19163  0.25000  Biso   1.000  Rb
  Rb4      1.0000 0.19163  0.80837  0.75000  Biso   1.000  Rb
  S1       1.0000 0.64128  0.77118  0.44911  Biso   1.000  S 
  S2       1.0000 0.22882  0.35872  0.05089  Biso   1.000  S 
  S3       1.0000 0.35872  0.22882  0.55089  Biso   1.000  S 
  S4       1.0000 0.77118  0.64128  0.94911  Biso   1.000  S 
  S5       1.0000 0.11764  0.48043  0.65824  Biso   1.000  S 
  S6       1.0000 0.51957  0.88236  0.84176  Biso   1.000  S 
  S7       1.0000 0.88236  0.51957  0.34176  Biso   1.000  S 
  S8       1.0000 0.48043  0.11764  0.15824  Biso   1.000  S 
