data_image0
_cell_length_a       4.68383
_cell_length_b       6.99238
_cell_length_c       10.5764
_cell_angle_alpha    90
_cell_angle_beta     90
_cell_angle_gamma    90

_symmetry_space_group_name_H-M    "P 1"
_symmetry_int_tables_number       1

loop_
  _symmetry_equiv_pos_as_xyz
  'x, y, z'

loop_
  _atom_site_label
  _atom_site_occupancy
  _atom_site_fract_x
  _atom_site_fract_y
  _atom_site_fract_z
  _atom_site_thermal_displace_type
  _atom_site_B_iso_or_equiv
  _atom_site_type_symbol
  Ag1      1.0000 0.09177  0.62463  0.12626  Biso   1.000  Ag
  Ag2      1.0000 0.90823  0.12463  0.37374  Biso   1.000  Ag
  Ag3      1.0000 0.59177  0.87537  0.87374  Biso   1.000  Ag
  Ag4      1.0000 0.40823  0.37537  0.62626  Biso   1.000  Ag
  Ag5      1.0000 0.48190  0.39121  0.27359  Biso   1.000  Ag
  Ag6      1.0000 0.51810  0.89121  0.22641  Biso   1.000  Ag
  Ag7      1.0000 0.98190  0.10879  0.72641  Biso   1.000  Ag
  Ag8      1.0000 0.01810  0.60879  0.77359  Biso   1.000  Ag
  Ge1      1.0000 0.01470  0.12800  0.06438  Biso   1.000  Ge
  Ge2      1.0000 0.98530  0.62800  0.43562  Biso   1.000  Ge
  Ge3      1.0000 0.51470  0.37200  0.93562  Biso   1.000  Ge
  Ge4      1.0000 0.48530  0.87200  0.56438  Biso   1.000  Ge
  O1       1.0000 0.15616  0.40580  0.46022  Biso   1.000  O 
  O2       1.0000 0.84384  0.90580  0.03978  Biso   1.000  O 
  O3       1.0000 0.65616  0.09420  0.53978  Biso   1.000  O 
  O4       1.0000 0.34384  0.59420  0.96022  Biso   1.000  O 
  O5       1.0000 0.19556  0.13773  0.21304  Biso   1.000  O 
  O6       1.0000 0.80444  0.63773  0.28696  Biso   1.000  O 
  O7       1.0000 0.69556  0.36227  0.78696  Biso   1.000  O 
  O8       1.0000 0.30444  0.86227  0.71304  Biso   1.000  O 
  O9       1.0000 0.76926  0.33129  0.06317  Biso   1.000  O 
  O10      1.0000 0.23074  0.83129  0.43683  Biso   1.000  O 
  O11      1.0000 0.26926  0.16871  0.93683  Biso   1.000  O 
  O12      1.0000 0.73074  0.66871  0.56317  Biso   1.000  O 
