data_image0
_cell_length_a       6.93116
_cell_length_b       6.93116
_cell_length_c       6.54618
_cell_angle_alpha    90
_cell_angle_beta     90
_cell_angle_gamma    61.0256

_symmetry_space_group_name_H-M    "P 1"
_symmetry_int_tables_number       1

loop_
  _symmetry_equiv_pos_as_xyz
  'x, y, z'

loop_
  _atom_site_label
  _atom_site_occupancy
  _atom_site_fract_x
  _atom_site_fract_y
  _atom_site_fract_z
  _atom_site_thermal_displace_type
  _atom_site_B_iso_or_equiv
  _atom_site_type_symbol
  Ag1      1.0000 0.30583  0.00785  0.49052  Biso   1.000  Ag
  Ag2      1.0000 0.99215  0.69417  0.49052  Biso   1.000  Ag
  Ag3      1.0000 0.69417  0.99215  0.99052  Biso   1.000  Ag
  Ag4      1.0000 0.00785  0.30583  0.99052  Biso   1.000  Ag
  Ge1      1.0000 0.65945  0.34055  0.46078  Biso   1.000  Ge
  Ge2      1.0000 0.34055  0.65945  0.96078  Biso   1.000  Ge
  S1       1.0000 0.35206  0.96286  0.87456  Biso   1.000  S 
  S2       1.0000 0.03714  0.64794  0.87456  Biso   1.000  S 
  S3       1.0000 0.64794  0.03714  0.37456  Biso   1.000  S 
  S4       1.0000 0.96286  0.35206  0.37456  Biso   1.000  S 
  S5       1.0000 0.64487  0.35513  0.82606  Biso   1.000  S 
  S6       1.0000 0.35513  0.64487  0.32606  Biso   1.000  S 
