data_image0
_cell_length_a       6.18313
_cell_length_b       6.18313
_cell_length_c       8.40115
_cell_angle_alpha    90
_cell_angle_beta     90
_cell_angle_gamma    90

_symmetry_space_group_name_H-M    "P 1"
_symmetry_int_tables_number       1

loop_
  _symmetry_equiv_pos_as_xyz
  'x, y, z'

loop_
  _atom_site_label
  _atom_site_occupancy
  _atom_site_fract_x
  _atom_site_fract_y
  _atom_site_fract_z
  _atom_site_thermal_displace_type
  _atom_site_B_iso_or_equiv
  _atom_site_type_symbol
  Hg1      1.0000 0.79281  0.79281  0.00000  Biso   1.000  Hg
  Hg2      1.0000 0.29281  0.70719  0.25000  Biso   1.000  Hg
  Hg3      1.0000 0.70719  0.29281  0.75000  Biso   1.000  Hg
  Hg4      1.0000 0.20719  0.20719  0.50000  Biso   1.000  Hg
  Ag1      1.0000 0.00751  0.24325  0.12576  Biso   1.000  Ag
  Ag2      1.0000 0.50751  0.25675  0.12424  Biso   1.000  Ag
  Ag3      1.0000 0.49249  0.74325  0.62424  Biso   1.000  Ag
  Ag4      1.0000 0.75675  0.99249  0.37424  Biso   1.000  Ag
  Ag5      1.0000 0.24325  0.00751  0.87424  Biso   1.000  Ag
  Ag6      1.0000 0.74325  0.49249  0.37576  Biso   1.000  Ag
  Ag7      1.0000 0.25675  0.50751  0.87576  Biso   1.000  Ag
  Ag8      1.0000 0.99249  0.75675  0.62576  Biso   1.000  Ag
  O1       1.0000 0.38951  0.76292  0.01498  Biso   1.000  O 
  O2       1.0000 0.88951  0.73708  0.23502  Biso   1.000  O 
  O3       1.0000 0.11049  0.26292  0.73502  Biso   1.000  O 
  O4       1.0000 0.23708  0.61049  0.48502  Biso   1.000  O 
  O5       1.0000 0.76292  0.38951  0.98502  Biso   1.000  O 
  O6       1.0000 0.26292  0.11049  0.26498  Biso   1.000  O 
  O7       1.0000 0.73708  0.88951  0.76498  Biso   1.000  O 
  O8       1.0000 0.61049  0.23708  0.51498  Biso   1.000  O 
