data_image0
_cell_length_a       5.4286
_cell_length_b       5.4286
_cell_length_c       5.4286
_cell_angle_alpha    66.9696
_cell_angle_beta     66.9696
_cell_angle_gamma    66.9696

_symmetry_space_group_name_H-M    "P 1"
_symmetry_int_tables_number       1

loop_
  _symmetry_equiv_pos_as_xyz
  'x, y, z'

loop_
  _atom_site_label
  _atom_site_occupancy
  _atom_site_fract_x
  _atom_site_fract_y
  _atom_site_fract_z
  _atom_site_thermal_displace_type
  _atom_site_B_iso_or_equiv
  _atom_site_type_symbol
  Ag1      1.0000 0.61456  0.61456  0.61456  Biso   1.000  Ag
  Ag2      1.0000 0.38544  0.38544  0.38544  Biso   1.000  Ag
  I1       1.0000 0.00000  0.00000  0.00000  Biso   1.000  I 
  O1       1.0000 0.95334  0.15909  0.63136  Biso   1.000  O 
  O2       1.0000 0.15909  0.63136  0.95334  Biso   1.000  O 
  O3       1.0000 0.63136  0.95334  0.15909  Biso   1.000  O 
  O4       1.0000 0.04666  0.84091  0.36864  Biso   1.000  O 
  O5       1.0000 0.84091  0.36864  0.04666  Biso   1.000  O 
  O6       1.0000 0.36864  0.04666  0.84091  Biso   1.000  O 
  H1       1.0000 0.00000  0.00000  0.50000  Biso   1.000  H 
  H2       1.0000 1.00000  0.50000  0.00000  Biso   1.000  H 
  H3       1.0000 0.50000  1.00000  0.00000  Biso   1.000  H 
