data_image0
_cell_length_a       6.17421
_cell_length_b       6.66785
_cell_length_c       13.3388
_cell_angle_alpha    87.0585
_cell_angle_beta     90
_cell_angle_gamma    90

_symmetry_space_group_name_H-M    "P 1"
_symmetry_int_tables_number       1

loop_
  _symmetry_equiv_pos_as_xyz
  'x, y, z'

loop_
  _atom_site_label
  _atom_site_occupancy
  _atom_site_fract_x
  _atom_site_fract_y
  _atom_site_fract_z
  _atom_site_thermal_displace_type
  _atom_site_B_iso_or_equiv
  _atom_site_type_symbol
  Hg1      1.0000 0.45997  0.69564  0.59964  Biso   1.000  Hg
  Hg2      1.0000 0.95997  0.80436  0.90036  Biso   1.000  Hg
  Hg3      1.0000 0.54003  0.30436  0.40036  Biso   1.000  Hg
  Hg4      1.0000 0.04003  0.19564  0.09964  Biso   1.000  Hg
  Te1      1.0000 0.00000  0.50000  0.50000  Biso   1.000  Te
  Te2      1.0000 0.50000  0.00000  0.00000  Biso   1.000  Te
  Te3      1.0000 0.90318  0.98852  0.60621  Biso   1.000  Te
  Te4      1.0000 0.40318  0.51148  0.89379  Biso   1.000  Te
  Te5      1.0000 0.09682  0.01148  0.39379  Biso   1.000  Te
  Te6      1.0000 0.59682  0.48852  0.10621  Biso   1.000  Te
  Ag1      1.0000 0.84866  0.31378  0.78553  Biso   1.000  Ag
  Ag2      1.0000 0.34866  0.18622  0.71447  Biso   1.000  Ag
  Ag3      1.0000 0.15134  0.68622  0.21447  Biso   1.000  Ag
  Ag4      1.0000 0.65134  0.81378  0.28553  Biso   1.000  Ag
  O1       1.0000 0.02243  0.01419  0.73702  Biso   1.000  O 
  O2       1.0000 0.52243  0.48581  0.76298  Biso   1.000  O 
  O3       1.0000 0.97757  0.98581  0.26298  Biso   1.000  O 
  O4       1.0000 0.47757  0.51419  0.23702  Biso   1.000  O 
  O5       1.0000 0.87578  0.28862  0.59493  Biso   1.000  O 
  O6       1.0000 0.37578  0.21138  0.90507  Biso   1.000  O 
  O7       1.0000 0.12422  0.71138  0.40507  Biso   1.000  O 
  O8       1.0000 0.62422  0.78862  0.09493  Biso   1.000  O 
  O9       1.0000 0.81061  0.98872  0.46085  Biso   1.000  O 
  O10      1.0000 0.31061  0.51128  0.03915  Biso   1.000  O 
  O11      1.0000 0.18939  0.01128  0.53915  Biso   1.000  O 
  O12      1.0000 0.68939  0.48872  0.96085  Biso   1.000  O 
  O13      1.0000 0.29071  0.44754  0.55310  Biso   1.000  O 
  O14      1.0000 0.79071  0.05246  0.94690  Biso   1.000  O 
  O15      1.0000 0.70929  0.55246  0.44690  Biso   1.000  O 
  O16      1.0000 0.20929  0.94754  0.05310  Biso   1.000  O 
  O17      1.0000 0.93938  0.68923  0.60786  Biso   1.000  O 
  O18      1.0000 0.43938  0.81077  0.89214  Biso   1.000  O 
  O19      1.0000 0.06062  0.31077  0.39214  Biso   1.000  O 
  O20      1.0000 0.56062  0.18923  0.10786  Biso   1.000  O 
  O21      1.0000 0.60579  0.95631  0.64762  Biso   1.000  O 
  O22      1.0000 0.10579  0.54369  0.85238  Biso   1.000  O 
  O23      1.0000 0.39421  0.04369  0.35238  Biso   1.000  O 
  O24      1.0000 0.89421  0.45631  0.14762  Biso   1.000  O 
