data_image0
_cell_length_a       6.65577
_cell_length_b       6.65577
_cell_length_c       12.7313
_cell_angle_alpha    90
_cell_angle_beta     90
_cell_angle_gamma    60.3068

_symmetry_space_group_name_H-M    "P 1"
_symmetry_int_tables_number       1

loop_
  _symmetry_equiv_pos_as_xyz
  'x, y, z'

loop_
  _atom_site_label
  _atom_site_occupancy
  _atom_site_fract_x
  _atom_site_fract_y
  _atom_site_fract_z
  _atom_site_thermal_displace_type
  _atom_site_B_iso_or_equiv
  _atom_site_type_symbol
  Hf1      1.0000 0.33552  0.33552  0.50000  Biso   1.000  Hf
  Hf2      1.0000 0.83552  0.83552  0.00000  Biso   1.000  Hf
  Hf3      1.0000 0.66448  0.66448  0.50000  Biso   1.000  Hf
  Hf4      1.0000 0.16448  0.16448  0.00000  Biso   1.000  Hf
  Ag1      1.0000 0.35172  0.14828  0.75000  Biso   1.000  Ag
  Ag2      1.0000 0.14828  0.35172  0.25000  Biso   1.000  Ag
  Ag3      1.0000 0.64828  0.85172  0.25000  Biso   1.000  Ag
  Ag4      1.0000 0.85172  0.64828  0.75000  Biso   1.000  Ag
  Ag5      1.0000 0.52754  0.47246  0.81782  Biso   1.000  Ag
  Ag6      1.0000 0.47246  0.52754  0.18218  Biso   1.000  Ag
  Ag7      1.0000 0.97246  0.02754  0.31782  Biso   1.000  Ag
  Ag8      1.0000 0.02754  0.97246  0.68218  Biso   1.000  Ag
  S1       1.0000 0.99925  0.34547  0.60368  Biso   1.000  S 
  S2       1.0000 0.34547  0.99925  0.39632  Biso   1.000  S 
  S3       1.0000 0.84547  0.49925  0.10368  Biso   1.000  S 
  S4       1.0000 0.49925  0.84547  0.89632  Biso   1.000  S 
  S5       1.0000 0.00075  0.65453  0.39632  Biso   1.000  S 
  S6       1.0000 0.65453  0.00075  0.60368  Biso   1.000  S 
  S7       1.0000 0.15453  0.50075  0.89632  Biso   1.000  S 
  S8       1.0000 0.50075  0.15453  0.10368  Biso   1.000  S 
  S9       1.0000 0.11118  0.88882  0.12245  Biso   1.000  S 
  S10      1.0000 0.88882  0.11118  0.87755  Biso   1.000  S 
  S11      1.0000 0.38882  0.61118  0.62245  Biso   1.000  S 
  S12      1.0000 0.61118  0.38882  0.37755  Biso   1.000  S 
