data_image0
_cell_length_a       7.95385
_cell_length_b       4.17312
_cell_length_c       6.77812
_cell_angle_alpha    69.8753
_cell_angle_beta     90
_cell_angle_gamma    90

_symmetry_space_group_name_H-M    "P 1"
_symmetry_int_tables_number       1

loop_
  _symmetry_equiv_pos_as_xyz
  'x, y, z'

loop_
  _atom_site_label
  _atom_site_occupancy
  _atom_site_fract_x
  _atom_site_fract_y
  _atom_site_fract_z
  _atom_site_thermal_displace_type
  _atom_site_B_iso_or_equiv
  _atom_site_type_symbol
  Hg1      1.0000 0.50000  0.00000  0.50000  Biso   1.000  Hg
  Hg2      1.0000 0.00000  0.00000  0.00000  Biso   1.000  Hg
  Ag1      1.0000 0.34896  0.61668  0.09765  Biso   1.000  Ag
  Ag2      1.0000 0.84896  0.38332  0.40235  Biso   1.000  Ag
  Ag3      1.0000 0.65104  0.38332  0.90235  Biso   1.000  Ag
  Ag4      1.0000 0.15104  0.61668  0.59765  Biso   1.000  Ag
  S1       1.0000 0.12505  0.18798  0.26756  Biso   1.000  S 
  S2       1.0000 0.62505  0.81202  0.23244  Biso   1.000  S 
  S3       1.0000 0.87495  0.81202  0.73244  Biso   1.000  S 
  S4       1.0000 0.37495  0.18798  0.76756  Biso   1.000  S 
