data_image0
_cell_length_a       6.50123
_cell_length_b       6.50123
_cell_length_c       6.44171
_cell_angle_alpha    90
_cell_angle_beta     90
_cell_angle_gamma    90

_symmetry_space_group_name_H-M    "P 1"
_symmetry_int_tables_number       1

loop_
  _symmetry_equiv_pos_as_xyz
  'x, y, z'

loop_
  _atom_site_label
  _atom_site_occupancy
  _atom_site_fract_x
  _atom_site_fract_y
  _atom_site_fract_z
  _atom_site_thermal_displace_type
  _atom_site_B_iso_or_equiv
  _atom_site_type_symbol
  Hg1      1.0000 0.00000  0.00000  0.00000  Biso   1.000  Hg
  Ag1      1.0000 0.50000  0.00000  0.50000  Biso   1.000  Ag
  Ag2      1.0000 0.00000  0.50000  0.50000  Biso   1.000  Ag
  I1       1.0000 0.73576  0.73576  0.23768  Biso   1.000  I 
  I2       1.0000 0.26424  0.26424  0.23768  Biso   1.000  I 
  I3       1.0000 0.26424  0.73576  0.76232  Biso   1.000  I 
  I4       1.0000 0.73576  0.26424  0.76232  Biso   1.000  I 
