data_image0
_cell_length_a       5.98126
_cell_length_b       7.14963
_cell_length_c       10.621
_cell_angle_alpha    71.1522
_cell_angle_beta     90
_cell_angle_gamma    90

_symmetry_space_group_name_H-M    "P 1"
_symmetry_int_tables_number       1

loop_
  _symmetry_equiv_pos_as_xyz
  'x, y, z'

loop_
  _atom_site_label
  _atom_site_occupancy
  _atom_site_fract_x
  _atom_site_fract_y
  _atom_site_fract_z
  _atom_site_thermal_displace_type
  _atom_site_B_iso_or_equiv
  _atom_site_type_symbol
  Pd1      1.0000 0.50000  1.00000  0.50000  Biso   1.000  Pd
  Pd2      1.0000 0.00000  0.00000  0.00000  Biso   1.000  Pd
  Ag1      1.0000 0.73300  0.42312  0.35531  Biso   1.000  Ag
  Ag2      1.0000 0.23300  0.57688  0.14469  Biso   1.000  Ag
  Ag3      1.0000 0.26700  0.57688  0.64469  Biso   1.000  Ag
  Ag4      1.0000 0.76700  0.42312  0.85531  Biso   1.000  Ag
  S1       1.0000 0.23752  0.25116  0.46496  Biso   1.000  S 
  S2       1.0000 0.73752  0.74884  0.03504  Biso   1.000  S 
  S3       1.0000 0.76248  0.74884  0.53504  Biso   1.000  S 
  S4       1.0000 0.26248  0.25116  0.96496  Biso   1.000  S 
  O1       1.0000 0.35245  0.44472  0.38629  Biso   1.000  O 
  O2       1.0000 0.85245  0.55528  0.11371  Biso   1.000  O 
  O3       1.0000 0.64755  0.55528  0.61371  Biso   1.000  O 
  O4       1.0000 0.14755  0.44472  0.88629  Biso   1.000  O 
  O5       1.0000 0.04119  0.22108  0.38496  Biso   1.000  O 
  O6       1.0000 0.54119  0.77892  0.11504  Biso   1.000  O 
  O7       1.0000 0.95881  0.77892  0.61504  Biso   1.000  O 
  O8       1.0000 0.45881  0.22108  0.88496  Biso   1.000  O 
  O9       1.0000 0.15779  0.26762  0.59561  Biso   1.000  O 
  O10      1.0000 0.65779  0.73238  0.90439  Biso   1.000  O 
  O11      1.0000 0.84221  0.73238  0.40439  Biso   1.000  O 
  O12      1.0000 0.34221  0.26762  0.09561  Biso   1.000  O 
  N1       1.0000 0.35029  0.91785  0.34798  Biso   1.000  N 
  N2       1.0000 0.85029  0.08215  0.15202  Biso   1.000  N 
  N3       1.0000 0.64971  0.08215  0.65202  Biso   1.000  N 
  N4       1.0000 0.14971  0.91785  0.84798  Biso   1.000  N 
  H1       1.0000 0.19187  0.86532  0.37659  Biso   1.000  H 
  H2       1.0000 0.69186  0.13468  0.12341  Biso   1.000  H 
  H3       1.0000 0.80813  0.13468  0.62341  Biso   1.000  H 
  H4       1.0000 0.30813  0.86532  0.87659  Biso   1.000  H 
  H5       1.0000 0.33684  0.03827  0.26251  Biso   1.000  H 
  H6       1.0000 0.83684  0.96173  0.23749  Biso   1.000  H 
  H7       1.0000 0.66316  0.96173  0.73749  Biso   1.000  H 
  H8       1.0000 0.16316  0.03827  0.76251  Biso   1.000  H 
  H9       1.0000 0.43648  0.81008  0.32400  Biso   1.000  H 
  H10      1.0000 0.93648  0.18992  0.17600  Biso   1.000  H 
  H11      1.0000 0.56352  0.18992  0.67600  Biso   1.000  H 
  H12      1.0000 0.06352  0.81008  0.82400  Biso   1.000  H 
