data_image0
_cell_length_a       7.7457
_cell_length_b       7.67546
_cell_length_c       8.49309
_cell_angle_alpha    73.2513
_cell_angle_beta     73.2698
_cell_angle_gamma    71.3035

_symmetry_space_group_name_H-M    "P 1"
_symmetry_int_tables_number       1

loop_
  _symmetry_equiv_pos_as_xyz
  'x, y, z'

loop_
  _atom_site_label
  _atom_site_occupancy
  _atom_site_fract_x
  _atom_site_fract_y
  _atom_site_fract_z
  _atom_site_thermal_displace_type
  _atom_site_B_iso_or_equiv
  _atom_site_type_symbol
  Ag1      1.0000 0.34768  0.56057  0.40726  Biso   1.000  Ag
  Ag2      1.0000 0.65232  0.43943  0.59274  Biso   1.000  Ag
  Ag3      1.0000 0.41324  0.29710  0.98388  Biso   1.000  Ag
  Ag4      1.0000 0.58676  0.70290  0.01612  Biso   1.000  Ag
  Li1      1.0000 0.10045  0.29089  0.33245  Biso   1.000  Li
  Li2      1.0000 0.89955  0.70911  0.66755  Biso   1.000  Li
  P1       1.0000 0.74416  0.24965  0.27175  Biso   1.000  P 
  P2       1.0000 0.25584  0.75035  0.72825  Biso   1.000  P 
  P3       1.0000 0.10904  0.71375  0.09136  Biso   1.000  P 
  P4       1.0000 0.89096  0.28625  0.90864  Biso   1.000  P 
  P5       1.0000 0.74247  0.83623  0.32673  Biso   1.000  P 
  P6       1.0000 0.25753  0.16377  0.67327  Biso   1.000  P 
  O1       1.0000 0.83679  0.27853  0.39257  Biso   1.000  O 
  O2       1.0000 0.16321  0.72147  0.60743  Biso   1.000  O 
  O3       1.0000 0.57249  0.39567  0.22371  Biso   1.000  O 
  O4       1.0000 0.42751  0.60433  0.77629  Biso   1.000  O 
  O5       1.0000 0.69432  0.05131  0.34439  Biso   1.000  O 
  O6       1.0000 0.30568  0.94869  0.65561  Biso   1.000  O 
  O7       1.0000 0.90434  0.22220  0.10545  Biso   1.000  O 
  O8       1.0000 0.09566  0.77780  0.89455  Biso   1.000  O 
  O9       1.0000 0.57276  0.81261  0.29120  Biso   1.000  O 
  O10      1.0000 0.42724  0.18739  0.70880  Biso   1.000  O 
  O11      1.0000 0.81906  0.70788  0.47450  Biso   1.000  O 
  O12      1.0000 0.18093  0.29212  0.52550  Biso   1.000  O 
  O13      1.0000 0.90177  0.83509  0.15639  Biso   1.000  O 
  O14      1.0000 0.09823  0.16491  0.84361  Biso   1.000  O 
  O15      1.0000 0.25014  0.79429  0.11754  Biso   1.000  O 
  O16      1.0000 0.74986  0.20571  0.88246  Biso   1.000  O 
  O17      1.0000 0.12701  0.50684  0.15153  Biso   1.000  O 
  O18      1.0000 0.87299  0.49316  0.84847  Biso   1.000  O 
  O19      1.0000 0.72187  0.91187  0.78409  Biso   1.000  O 
  O20      1.0000 0.27813  0.08813  0.21591  Biso   1.000  O 
  H1       1.0000 0.76563  0.99239  0.82888  Biso   1.000  H 
  H2       1.0000 0.23437  0.00761  0.17112  Biso   1.000  H 
  H3       1.0000 0.38782  0.99550  0.25918  Biso   1.000  H 
  H4       1.0000 0.61218  0.00450  0.74082  Biso   1.000  H 
