data_image0
_cell_length_a       7.90142
_cell_length_b       7.90142
_cell_length_c       7.2568
_cell_angle_alpha    90
_cell_angle_beta     90
_cell_angle_gamma    57.2958

_symmetry_space_group_name_H-M    "P 1"
_symmetry_int_tables_number       1

loop_
  _symmetry_equiv_pos_as_xyz
  'x, y, z'

loop_
  _atom_site_label
  _atom_site_occupancy
  _atom_site_fract_x
  _atom_site_fract_y
  _atom_site_fract_z
  _atom_site_thermal_displace_type
  _atom_site_B_iso_or_equiv
  _atom_site_type_symbol
  Hg1      1.0000 0.96596  0.03404  0.40083  Biso   1.000  Hg
  Hg2      1.0000 0.03404  0.96596  0.90083  Biso   1.000  Hg
  I1       1.0000 0.86231  0.45178  0.17222  Biso   1.000  I 
  I2       1.0000 0.54822  0.13769  0.17222  Biso   1.000  I 
  I3       1.0000 0.13769  0.54822  0.67222  Biso   1.000  I 
  I4       1.0000 0.45178  0.86231  0.67222  Biso   1.000  I 
  Ag1      1.0000 0.18080  0.49509  0.27421  Biso   1.000  Ag
  Ag2      1.0000 0.50491  0.81920  0.27421  Biso   1.000  Ag
  Ag3      1.0000 0.81920  0.50491  0.77421  Biso   1.000  Ag
  Ag4      1.0000 0.49509  0.18080  0.77421  Biso   1.000  Ag
  S1       1.0000 0.20517  0.79483  0.18052  Biso   1.000  S 
  S2       1.0000 0.79483  0.20517  0.68052  Biso   1.000  S 
