data_image0
_cell_length_a       7.43599
_cell_length_b       7.43599
_cell_length_c       12.9056
_cell_angle_alpha    73.0766
_cell_angle_beta     73.0766
_cell_angle_gamma    61.4928

_symmetry_space_group_name_H-M    "P 1"
_symmetry_int_tables_number       1

loop_
  _symmetry_equiv_pos_as_xyz
  'x, y, z'

loop_
  _atom_site_label
  _atom_site_occupancy
  _atom_site_fract_x
  _atom_site_fract_y
  _atom_site_fract_z
  _atom_site_thermal_displace_type
  _atom_site_B_iso_or_equiv
  _atom_site_type_symbol
  Ag1      1.0000 0.80618  0.98796  0.24641  Biso   1.000  Ag
  Ag2      1.0000 0.98796  0.80618  0.74641  Biso   1.000  Ag
  Ag3      1.0000 0.39742  0.80091  0.08346  Biso   1.000  Ag
  Ag4      1.0000 0.80091  0.39742  0.58346  Biso   1.000  Ag
  In1      1.0000 0.31703  0.51394  0.43968  Biso   1.000  In
  In2      1.0000 0.51394  0.31703  0.93968  Biso   1.000  In
  In3      1.0000 0.17456  0.29496  0.24213  Biso   1.000  In
  In4      1.0000 0.29496  0.17456  0.74213  Biso   1.000  In
  Si1      1.0000 0.39873  0.93940  0.49832  Biso   1.000  Si
  Si2      1.0000 0.93940  0.39873  0.99832  Biso   1.000  Si
  Se1      1.0000 0.59969  0.11651  0.44694  Biso   1.000  Se
  Se2      1.0000 0.11651  0.59969  0.94694  Biso   1.000  Se
  Se3      1.0000 0.16773  0.65172  0.25380  Biso   1.000  Se
  Se4      1.0000 0.65172  0.16773  0.75380  Biso   1.000  Se
  Se5      1.0000 0.08146  0.10079  0.44621  Biso   1.000  Se
  Se6      1.0000 0.10079  0.08146  0.94621  Biso   1.000  Se
  Se7      1.0000 0.83038  0.36037  0.18495  Biso   1.000  Se
  Se8      1.0000 0.36037  0.83038  0.68495  Biso   1.000  Se
  Se9      1.0000 0.04938  0.52446  0.62890  Biso   1.000  Se
  Se10     1.0000 0.52446  0.04938  0.12890  Biso   1.000  Se
  Se11     1.0000 0.60110  0.65093  0.41630  Biso   1.000  Se
  Se12     1.0000 0.65093  0.60109  0.91630  Biso   1.000  Se
