data_image0
_cell_length_a       7.30081
_cell_length_b       7.66755
_cell_length_c       8.90411
_cell_angle_alpha    90
_cell_angle_beta     90
_cell_angle_gamma    90

_symmetry_space_group_name_H-M    "P 1"
_symmetry_int_tables_number       1

loop_
  _symmetry_equiv_pos_as_xyz
  'x, y, z'

loop_
  _atom_site_label
  _atom_site_occupancy
  _atom_site_fract_x
  _atom_site_fract_y
  _atom_site_fract_z
  _atom_site_thermal_displace_type
  _atom_site_B_iso_or_equiv
  _atom_site_type_symbol
  Ag1      1.0000 0.62739  0.82576  0.74669  Biso   1.000  Ag
  Ag2      1.0000 0.62739  0.82576  0.25331  Biso   1.000  Ag
  Ag3      1.0000 0.12739  0.17424  0.75331  Biso   1.000  Ag
  Ag4      1.0000 0.12739  0.17424  0.24669  Biso   1.000  Ag
  Zn1      1.0000 0.62372  0.32853  0.50000  Biso   1.000  Zn
  Zn2      1.0000 0.12372  0.67147  0.00000  Biso   1.000  Zn
  I1       1.0000 0.47542  0.64121  0.50000  Biso   1.000  I 
  I2       1.0000 0.97542  0.35879  0.00000  Biso   1.000  I 
  I3       1.0000 0.98129  0.35358  0.50000  Biso   1.000  I 
  I4       1.0000 0.48129  0.64642  0.00000  Biso   1.000  I 
  I5       1.0000 0.51619  0.18009  0.75018  Biso   1.000  I 
  I6       1.0000 0.51619  0.18009  0.24982  Biso   1.000  I 
  I7       1.0000 0.01619  0.81991  0.74982  Biso   1.000  I 
  I8       1.0000 0.01619  0.81991  0.25018  Biso   1.000  I 
