data_image0
_cell_length_a       5.9622
_cell_length_b       7.63888
_cell_length_c       12.3895
_cell_angle_alpha    66.2354
_cell_angle_beta     90
_cell_angle_gamma    90

_symmetry_space_group_name_H-M    "P 1"
_symmetry_int_tables_number       1

loop_
  _symmetry_equiv_pos_as_xyz
  'x, y, z'

loop_
  _atom_site_label
  _atom_site_occupancy
  _atom_site_fract_x
  _atom_site_fract_y
  _atom_site_fract_z
  _atom_site_thermal_displace_type
  _atom_site_B_iso_or_equiv
  _atom_site_type_symbol
  Ag1      1.0000 0.75002  0.49884  0.97195  Biso   1.000  Ag
  Ag2      1.0000 0.75002  0.50116  0.52805  Biso   1.000  Ag
  Ag3      1.0000 0.24998  0.50116  0.02805  Biso   1.000  Ag
  Ag4      1.0000 0.24998  0.49884  0.47195  Biso   1.000  Ag
  Sn1      1.0000 0.75096  0.50000  0.25000  Biso   1.000  Sn
  Sn2      1.0000 0.24904  0.50000  0.75000  Biso   1.000  Sn
  Se1      1.0000 0.97324  0.26529  0.18926  Biso   1.000  Se
  Se2      1.0000 0.97324  0.73471  0.31074  Biso   1.000  Se
  Se3      1.0000 0.02676  0.73471  0.81074  Biso   1.000  Se
  Se4      1.0000 0.02676  0.26529  0.68926  Biso   1.000  Se
  Se5      1.0000 0.52538  0.26518  0.42580  Biso   1.000  Se
  Se6      1.0000 0.52538  0.73482  0.07420  Biso   1.000  Se
  Se7      1.0000 0.47462  0.73482  0.57420  Biso   1.000  Se
  Se8      1.0000 0.47462  0.26518  0.92580  Biso   1.000  Se
  K1       1.0000 0.47984  0.00000  0.25000  Biso   1.000  K 
  K2       1.0000 0.52016  0.00000  0.75000  Biso   1.000  K 
  K3       1.0000 0.00000  0.00000  0.50000  Biso   1.000  K 
  K4       1.0000 0.00000  0.00000  0.00000  Biso   1.000  K 
