data_image0
_cell_length_a       6.31544
_cell_length_b       6.31544
_cell_length_c       6.31544
_cell_angle_alpha    116.703
_cell_angle_beta     116.703
_cell_angle_gamma    95.8129

_symmetry_space_group_name_H-M    "P 1"
_symmetry_int_tables_number       1

loop_
  _symmetry_equiv_pos_as_xyz
  'x, y, z'

loop_
  _atom_site_label
  _atom_site_occupancy
  _atom_site_fract_x
  _atom_site_fract_y
  _atom_site_fract_z
  _atom_site_thermal_displace_type
  _atom_site_B_iso_or_equiv
  _atom_site_type_symbol
  Ag1      1.0000 0.25000  0.75000  0.50000  Biso   1.000  Ag
  Ag2      1.0000 0.75000  0.25000  0.50000  Biso   1.000  Ag
  K1       1.0000 0.50000  0.50000  0.00000  Biso   1.000  K 
  P1       1.0000 0.00000  0.00000  0.00000  Biso   1.000  P 
  S1       1.0000 0.95656  0.95656  0.63648  Biso   1.000  S 
  S2       1.0000 0.32008  0.32008  0.36352  Biso   1.000  S 
  S3       1.0000 0.67992  0.04344  0.00000  Biso   1.000  S 
  S4       1.0000 0.04344  0.67992  0.00000  Biso   1.000  S 
