data_image0
_cell_length_a       10.3117
_cell_length_b       10.3117
_cell_length_c       8.0509
_cell_angle_alpha    90
_cell_angle_beta     90
_cell_angle_gamma    145.565

_symmetry_space_group_name_H-M    "P 1"
_symmetry_int_tables_number       1

loop_
  _symmetry_equiv_pos_as_xyz
  'x, y, z'

loop_
  _atom_site_label
  _atom_site_occupancy
  _atom_site_fract_x
  _atom_site_fract_y
  _atom_site_fract_z
  _atom_site_thermal_displace_type
  _atom_site_B_iso_or_equiv
  _atom_site_type_symbol
  Ta1      1.0000 0.52755  0.29602  0.75000  Biso   1.000  Ta
  Ta2      1.0000 0.29602  0.52755  0.25000  Biso   1.000  Ta
  Ag1      1.0000 0.03167  0.79151  0.75000  Biso   1.000  Ag
  Ag2      1.0000 0.79151  0.03167  0.25000  Biso   1.000  Ag
  Ag3      1.0000 0.36375  0.36375  0.50000  Biso   1.000  Ag
  Ag4      1.0000 0.36375  0.36375  0.00000  Biso   1.000  Ag
  Se1      1.0000 0.66091  0.63433  0.75000  Biso   1.000  Se
  Se2      1.0000 0.63433  0.66091  0.25000  Biso   1.000  Se
  Se3      1.0000 0.84360  0.40483  0.75000  Biso   1.000  Se
  Se4      1.0000 0.40483  0.84360  0.25000  Biso   1.000  Se
  Se5      1.0000 0.30895  0.06594  0.49688  Biso   1.000  Se
  Se6      1.0000 0.06594  0.30895  0.50312  Biso   1.000  Se
  Se7      1.0000 0.30895  0.06594  0.00312  Biso   1.000  Se
  Se8      1.0000 0.06594  0.30895  0.99688  Biso   1.000  Se
  K1       1.0000 0.45403  0.82170  0.75000  Biso   1.000  K 
  K2       1.0000 0.82170  0.45403  0.25000  Biso   1.000  K 
