data_image0
_cell_length_a       10.2574
_cell_length_b       10.2574
_cell_length_c       8.04607
_cell_angle_alpha    90
_cell_angle_beta     90
_cell_angle_gamma    145.544

_symmetry_space_group_name_H-M    "P 1"
_symmetry_int_tables_number       1

loop_
  _symmetry_equiv_pos_as_xyz
  'x, y, z'

loop_
  _atom_site_label
  _atom_site_occupancy
  _atom_site_fract_x
  _atom_site_fract_y
  _atom_site_fract_z
  _atom_site_thermal_displace_type
  _atom_site_B_iso_or_equiv
  _atom_site_type_symbol
  Ag1      1.0000 0.26102  0.50097  0.75000  Biso   1.000  Ag
  Ag2      1.0000 0.50097  0.26102  0.25000  Biso   1.000  Ag
  Ag3      1.0000 0.92650  0.92650  0.50000  Biso   1.000  Ag
  Ag4      1.0000 0.92650  0.92650  0.00000  Biso   1.000  Ag
  Nb1      1.0000 0.76481  0.99701  0.75000  Biso   1.000  Nb
  Nb2      1.0000 0.99701  0.76481  0.25000  Biso   1.000  Nb
  Se1      1.0000 0.63122  0.65571  0.75000  Biso   1.000  Se
  Se2      1.0000 0.65571  0.63122  0.25000  Biso   1.000  Se
  Se3      1.0000 0.98646  0.22927  0.49557  Biso   1.000  Se
  Se4      1.0000 0.22927  0.98646  0.50443  Biso   1.000  Se
  Se5      1.0000 0.98646  0.22927  0.00443  Biso   1.000  Se
  Se6      1.0000 0.22927  0.98646  0.99557  Biso   1.000  Se
  Se7      1.0000 0.44505  0.88580  0.75000  Biso   1.000  Se
  Se8      1.0000 0.88580  0.44505  0.25000  Biso   1.000  Se
  K1       1.0000 0.83426  0.46931  0.75000  Biso   1.000  K 
  K2       1.0000 0.46931  0.83426  0.25000  Biso   1.000  K 
