data_image0
_cell_length_a       14.7357
_cell_length_b       14.7357
_cell_length_c       14.7357
_cell_angle_alpha    164.905
_cell_angle_beta     164.905
_cell_angle_gamma    21.4098

_symmetry_space_group_name_H-M    "P 1"
_symmetry_int_tables_number       1

loop_
  _symmetry_equiv_pos_as_xyz
  'x, y, z'

loop_
  _atom_site_label
  _atom_site_occupancy
  _atom_site_fract_x
  _atom_site_fract_y
  _atom_site_fract_z
  _atom_site_thermal_displace_type
  _atom_site_B_iso_or_equiv
  _atom_site_type_symbol
  Ag1      1.0000 0.28682  0.28682  0.00000  Biso   1.000  Ag
  Ag2      1.0000 0.71318  0.71318  0.00000  Biso   1.000  Ag
  La1      1.0000 0.42545  0.42545  0.00000  Biso   1.000  La
  La2      1.0000 0.57455  0.57455  0.00000  Biso   1.000  La
  Ti1      1.0000 0.00000  0.00000  0.00000  Biso   1.000  Ti
  Ti2      1.0000 0.14638  0.14638  0.00000  Biso   1.000  Ti
  Ti3      1.0000 0.85362  0.85362  0.00000  Biso   1.000  Ti
  O1       1.0000 0.50000  0.00000  0.50000  Biso   1.000  O 
  O2       1.0000 0.00000  0.50000  0.50000  Biso   1.000  O 
  O3       1.0000 0.06719  0.06719  0.00000  Biso   1.000  O 
  O4       1.0000 0.93281  0.93281  0.00000  Biso   1.000  O 
  O5       1.0000 0.63112  0.13112  0.50000  Biso   1.000  O 
  O6       1.0000 0.86888  0.36888  0.50000  Biso   1.000  O 
  O7       1.0000 0.36888  0.86888  0.50000  Biso   1.000  O 
  O8       1.0000 0.13112  0.63112  0.50000  Biso   1.000  O 
  O9       1.0000 0.20827  0.20827  0.00000  Biso   1.000  O 
  O10      1.0000 0.79173  0.79173  0.00000  Biso   1.000  O 
