data_image0
_cell_length_a       5.69613
_cell_length_b       5.69613
_cell_length_c       13.9052
_cell_angle_alpha    89.5307
_cell_angle_beta     89.5307
_cell_angle_gamma    59.5124

_symmetry_space_group_name_H-M    "P 1"
_symmetry_int_tables_number       1

loop_
  _symmetry_equiv_pos_as_xyz
  'x, y, z'

loop_
  _atom_site_label
  _atom_site_occupancy
  _atom_site_fract_x
  _atom_site_fract_y
  _atom_site_fract_z
  _atom_site_thermal_displace_type
  _atom_site_B_iso_or_equiv
  _atom_site_type_symbol
  Ag1      1.0000 0.28780  0.39337  0.09761  Biso   1.000  Ag
  Ag2      1.0000 0.60663  0.71220  0.40239  Biso   1.000  Ag
  Ag3      1.0000 0.71220  0.60663  0.90239  Biso   1.000  Ag
  Ag4      1.0000 0.39337  0.28780  0.59761  Biso   1.000  Ag
  Sr1      1.0000 0.91540  0.08460  0.25000  Biso   1.000  Sr
  Sr2      1.0000 0.08460  0.91540  0.75000  Biso   1.000  Sr
  Mn1      1.0000 0.00000  0.00000  0.00000  Biso   1.000  Mn
  Mn2      1.0000 0.00000  0.00000  0.50000  Biso   1.000  Mn
  V1       1.0000 0.28448  0.36693  0.37071  Biso   1.000  V 
  V2       1.0000 0.63307  0.71552  0.12929  Biso   1.000  V 
  V3       1.0000 0.71552  0.63307  0.62929  Biso   1.000  V 
  V4       1.0000 0.36693  0.28448  0.87071  Biso   1.000  V 
  O1       1.0000 0.80527  0.42294  0.05742  Biso   1.000  O 
  O2       1.0000 0.57706  0.19473  0.44258  Biso   1.000  O 
  O3       1.0000 0.19473  0.57706  0.94258  Biso   1.000  O 
  O4       1.0000 0.42294  0.80527  0.55742  Biso   1.000  O 
  O5       1.0000 0.39318  0.27300  0.25428  Biso   1.000  O 
  O6       1.0000 0.72700  0.60682  0.24572  Biso   1.000  O 
  O7       1.0000 0.60682  0.72700  0.74572  Biso   1.000  O 
  O8       1.0000 0.27300  0.39318  0.75428  Biso   1.000  O 
  O9       1.0000 0.05518  0.25889  0.40161  Biso   1.000  O 
  O10      1.0000 0.74111  0.94482  0.09839  Biso   1.000  O 
  O11      1.0000 0.94482  0.74111  0.59839  Biso   1.000  O 
  O12      1.0000 0.25889  0.05518  0.90161  Biso   1.000  O 
  O13      1.0000 0.13444  0.72221  0.38070  Biso   1.000  O 
  O14      1.0000 0.27779  0.86556  0.11930  Biso   1.000  O 
  O15      1.0000 0.86556  0.27779  0.61930  Biso   1.000  O 
  O16      1.0000 0.72221  0.13444  0.88070  Biso   1.000  O 
