data_image0
_cell_length_a       9.3049
_cell_length_b       9.3049
_cell_length_c       11.5644
_cell_angle_alpha    75.1763
_cell_angle_beta     75.1763
_cell_angle_gamma    36.626

_symmetry_space_group_name_H-M    "P 1"
_symmetry_int_tables_number       1

loop_
  _symmetry_equiv_pos_as_xyz
  'x, y, z'

loop_
  _atom_site_label
  _atom_site_occupancy
  _atom_site_fract_x
  _atom_site_fract_y
  _atom_site_fract_z
  _atom_site_thermal_displace_type
  _atom_site_B_iso_or_equiv
  _atom_site_type_symbol
  Te1      1.0000 0.98192  0.32914  0.06741  Biso   1.000  Te
  Te2      1.0000 0.67086  0.01808  0.43259  Biso   1.000  Te
  Te3      1.0000 0.01808  0.67086  0.93259  Biso   1.000  Te
  Te4      1.0000 0.32914  0.98192  0.56741  Biso   1.000  Te
  Te5      1.0000 0.37346  0.80742  0.90451  Biso   1.000  Te
  Te6      1.0000 0.19258  0.62654  0.59549  Biso   1.000  Te
  Te7      1.0000 0.62654  0.19258  0.09549  Biso   1.000  Te
  Te8      1.0000 0.80742  0.37346  0.40451  Biso   1.000  Te
  Ag1      1.0000 0.06120  0.50831  0.26970  Biso   1.000  Ag
  Ag2      1.0000 0.49169  0.93880  0.23030  Biso   1.000  Ag
  Ag3      1.0000 0.93880  0.49169  0.73030  Biso   1.000  Ag
  Ag4      1.0000 0.50831  0.06120  0.76970  Biso   1.000  Ag
  Mo1      1.0000 0.83524  0.16476  0.75000  Biso   1.000  Mo
  Mo2      1.0000 0.16476  0.83524  0.25000  Biso   1.000  Mo
  O1       1.0000 0.13285  0.88317  0.86752  Biso   1.000  O 
  O2       1.0000 0.11683  0.86715  0.63248  Biso   1.000  O 
  O3       1.0000 0.86715  0.11683  0.13248  Biso   1.000  O 
  O4       1.0000 0.88317  0.13285  0.36752  Biso   1.000  O 
  O5       1.0000 0.21177  0.00925  0.16848  Biso   1.000  O 
  O6       1.0000 0.99075  0.78823  0.33152  Biso   1.000  O 
  O7       1.0000 0.78823  0.99075  0.83152  Biso   1.000  O 
  O8       1.0000 0.00925  0.21177  0.66848  Biso   1.000  O 
  O9       1.0000 0.18636  0.32814  0.06973  Biso   1.000  O 
  O10      1.0000 0.67186  0.81364  0.43027  Biso   1.000  O 
  O11      1.0000 0.81364  0.67186  0.93027  Biso   1.000  O 
  O12      1.0000 0.32814  0.18636  0.56973  Biso   1.000  O 
  O13      1.0000 0.66391  0.37191  0.85981  Biso   1.000  O 
  O14      1.0000 0.62809  0.33609  0.64019  Biso   1.000  O 
  O15      1.0000 0.33609  0.62809  0.14019  Biso   1.000  O 
  O16      1.0000 0.37191  0.66391  0.35981  Biso   1.000  O 
  O17      1.0000 0.17222  0.14124  0.91647  Biso   1.000  O 
  O18      1.0000 0.85876  0.82778  0.58353  Biso   1.000  O 
  O19      1.0000 0.82778  0.85876  0.08353  Biso   1.000  O 
  O20      1.0000 0.14124  0.17222  0.41647  Biso   1.000  O 
  O21      1.0000 0.50386  0.80622  0.74627  Biso   1.000  O 
  O22      1.0000 0.19378  0.49614  0.75373  Biso   1.000  O 
  O23      1.0000 0.49614  0.19378  0.25373  Biso   1.000  O 
  O24      1.0000 0.80622  0.50386  0.24627  Biso   1.000  O 
