data_image0
_cell_length_a       6.11314
_cell_length_b       7.36668
_cell_length_c       7.61007
_cell_angle_alpha    111.221
_cell_angle_beta     92.3894
_cell_angle_gamma    115.006

_symmetry_space_group_name_H-M    "P 1"
_symmetry_int_tables_number       1

loop_
  _symmetry_equiv_pos_as_xyz
  'x, y, z'

loop_
  _atom_site_label
  _atom_site_occupancy
  _atom_site_fract_x
  _atom_site_fract_y
  _atom_site_fract_z
  _atom_site_thermal_displace_type
  _atom_site_B_iso_or_equiv
  _atom_site_type_symbol
  Mo1      1.0000 0.74899  0.26250  0.44618  Biso   1.000  Mo
  Mo2      1.0000 0.25101  0.73750  0.55382  Biso   1.000  Mo
  Mo3      1.0000 0.33316  0.33235  0.24557  Biso   1.000  Mo
  Mo4      1.0000 0.66684  0.66765  0.75443  Biso   1.000  Mo
  Ag1      1.0000 0.78104  0.27651  0.95849  Biso   1.000  Ag
  Ag2      1.0000 0.21896  0.72349  0.04151  Biso   1.000  Ag
  Ag3      1.0000 0.18099  0.19209  0.71330  Biso   1.000  Ag
  Ag4      1.0000 0.81901  0.80791  0.28670  Biso   1.000  Ag
  O1       1.0000 0.61704  0.99308  0.25613  Biso   1.000  O 
  O2       1.0000 0.38296  0.00692  0.74387  Biso   1.000  O 
  O3       1.0000 0.15867  0.04512  0.15659  Biso   1.000  O 
  O4       1.0000 0.84133  0.95489  0.84341  Biso   1.000  O 
  O5       1.0000 0.84380  0.22650  0.64999  Biso   1.000  O 
  O6       1.0000 0.15620  0.77350  0.35001  Biso   1.000  O 
  O7       1.0000 0.48149  0.32219  0.52687  Biso   1.000  O 
  O8       1.0000 0.51851  0.67781  0.47313  Biso   1.000  O 
  O9       1.0000 0.65186  0.36970  0.23104  Biso   1.000  O 
  O10      1.0000 0.34814  0.63030  0.76896  Biso   1.000  O 
  O11      1.0000 0.07601  0.38103  0.38948  Biso   1.000  O 
  O12      1.0000 0.92399  0.61897  0.61052  Biso   1.000  O 
  O13      1.0000 0.25716  0.40244  0.05927  Biso   1.000  O 
  O14      1.0000 0.74284  0.59756  0.94073  Biso   1.000  O 
