data_image0
_cell_length_a       13.0286
_cell_length_b       13.0286
_cell_length_c       13.0286
_cell_angle_alpha    27.9502
_cell_angle_beta     27.9501
_cell_angle_gamma    27.9501

_symmetry_space_group_name_H-M    "P 1"
_symmetry_int_tables_number       1

loop_
  _symmetry_equiv_pos_as_xyz
  'x, y, z'

loop_
  _atom_site_label
  _atom_site_occupancy
  _atom_site_fract_x
  _atom_site_fract_y
  _atom_site_fract_z
  _atom_site_thermal_displace_type
  _atom_site_B_iso_or_equiv
  _atom_site_type_symbol
  Ag1      1.0000 0.33098  0.33098  0.33098  Biso   1.000  Ag
  Ag2      1.0000 0.16902  0.16902  0.16902  Biso   1.000  Ag
  Ag3      1.0000 0.66902  0.66902  0.66902  Biso   1.000  Ag
  Ag4      1.0000 0.83098  0.83098  0.83098  Biso   1.000  Ag
  Nb1      1.0000 0.61314  0.88686  0.25000  Biso   1.000  Nb
  Nb2      1.0000 0.88686  0.25000  0.61314  Biso   1.000  Nb
  Nb3      1.0000 0.25000  0.61314  0.88686  Biso   1.000  Nb
  Nb4      1.0000 0.11314  0.75000  0.38686  Biso   1.000  Nb
  Nb5      1.0000 0.75000  0.38686  0.11314  Biso   1.000  Nb
  Nb6      1.0000 0.38686  0.11314  0.75000  Biso   1.000  Nb
  Nb7      1.0000 0.00000  0.00000  0.00000  Biso   1.000  Nb
  Nb8      1.0000 0.50000  0.50000  0.50000  Biso   1.000  Nb
  O1       1.0000 0.25365  0.56580  0.77349  Biso   1.000  O 
  O2       1.0000 0.93420  0.24635  0.72651  Biso   1.000  O 
  O3       1.0000 0.24635  0.72651  0.93420  Biso   1.000  O 
  O4       1.0000 0.72651  0.93420  0.24635  Biso   1.000  O 
  O5       1.0000 0.43420  0.22651  0.74635  Biso   1.000  O 
  O6       1.0000 0.22651  0.74635  0.43420  Biso   1.000  O 
  O7       1.0000 0.74635  0.43420  0.22651  Biso   1.000  O 
  O8       1.0000 0.06580  0.75365  0.27349  Biso   1.000  O 
  O9       1.0000 0.75365  0.27349  0.06580  Biso   1.000  O 
  O10      1.0000 0.27349  0.06580  0.75365  Biso   1.000  O 
  O11      1.0000 0.56580  0.77349  0.25365  Biso   1.000  O 
  O12      1.0000 0.77349  0.25365  0.56580  Biso   1.000  O 
  O13      1.0000 0.00190  0.49810  0.25000  Biso   1.000  O 
  O14      1.0000 0.49810  0.25000  0.00190  Biso   1.000  O 
  O15      1.0000 0.25000  0.00190  0.49810  Biso   1.000  O 
  O16      1.0000 0.50190  0.75000  0.99810  Biso   1.000  O 
  O17      1.0000 0.75000  0.99810  0.50190  Biso   1.000  O 
  O18      1.0000 0.99810  0.50190  0.75000  Biso   1.000  O 
  O19      1.0000 0.40626  0.40626  0.40626  Biso   1.000  O 
  O20      1.0000 0.09374  0.09374  0.09374  Biso   1.000  O 
  O21      1.0000 0.59374  0.59374  0.59374  Biso   1.000  O 
  O22      1.0000 0.90626  0.90626  0.90626  Biso   1.000  O 
