data_image0
_cell_length_a       6.42838
_cell_length_b       6.42838
_cell_length_c       13.0386
_cell_angle_alpha    77.1181
_cell_angle_beta     77.1181
_cell_angle_gamma    57.3846

_symmetry_space_group_name_H-M    "P 1"
_symmetry_int_tables_number       1

loop_
  _symmetry_equiv_pos_as_xyz
  'x, y, z'

loop_
  _atom_site_label
  _atom_site_occupancy
  _atom_site_fract_x
  _atom_site_fract_y
  _atom_site_fract_z
  _atom_site_thermal_displace_type
  _atom_site_B_iso_or_equiv
  _atom_site_type_symbol
  Nb1      1.0000 0.60244  0.74626  0.25077  Biso   1.000  Nb
  Nb2      1.0000 0.74626  0.60244  0.75077  Biso   1.000  Nb
  Nb3      1.0000 0.24625  0.39677  0.24984  Biso   1.000  Nb
  Nb4      1.0000 0.39677  0.24625  0.74984  Biso   1.000  Nb
  Nb5      1.0000 0.88165  0.12675  0.23607  Biso   1.000  Nb
  Nb6      1.0000 0.12675  0.88165  0.73607  Biso   1.000  Nb
  Nb7      1.0000 0.00169  0.53330  0.98948  Biso   1.000  Nb
  Nb8      1.0000 0.53330  0.00169  0.48948  Biso   1.000  Nb
  Ag1      1.0000 0.86024  0.32519  0.49732  Biso   1.000  Ag
  Ag2      1.0000 0.32519  0.86024  0.99732  Biso   1.000  Ag
  Ag3      1.0000 0.65555  0.20854  0.98694  Biso   1.000  Ag
  Ag4      1.0000 0.20854  0.65555  0.48694  Biso   1.000  Ag
  O1       1.0000 0.72554  0.73059  0.10059  Biso   1.000  O 
  O2       1.0000 0.73059  0.72554  0.60059  Biso   1.000  O 
  O3       1.0000 0.26010  0.27913  0.40853  Biso   1.000  O 
  O4       1.0000 0.27913  0.26010  0.90853  Biso   1.000  O 
  O5       1.0000 0.57763  0.74533  0.41146  Biso   1.000  O 
  O6       1.0000 0.74533  0.57763  0.91146  Biso   1.000  O 
  O7       1.0000 0.23993  0.40955  0.09913  Biso   1.000  O 
  O8       1.0000 0.40955  0.23993  0.59913  Biso   1.000  O 
  O9       1.0000 0.94119  0.20146  0.09009  Biso   1.000  O 
  O10      1.0000 0.20146  0.94119  0.59009  Biso   1.000  O 
  O11      1.0000 0.79154  0.04826  0.41504  Biso   1.000  O 
  O12      1.0000 0.04826  0.79154  0.91504  Biso   1.000  O 
  O13      1.0000 0.25305  0.96643  0.25324  Biso   1.000  O 
  O14      1.0000 0.96643  0.25305  0.75324  Biso   1.000  O 
  O15      1.0000 0.02218  0.74487  0.25093  Biso   1.000  O 
  O16      1.0000 0.74487  0.02218  0.75093  Biso   1.000  O 
  O17      1.0000 0.91482  0.39443  0.28057  Biso   1.000  O 
  O18      1.0000 0.39443  0.91482  0.78057  Biso   1.000  O 
  O19      1.0000 0.59385  0.07811  0.22963  Biso   1.000  O 
  O20      1.0000 0.07811  0.59385  0.72963  Biso   1.000  O 
  O21      1.0000 0.52448  0.47033  0.25010  Biso   1.000  O 
  O22      1.0000 0.47033  0.52448  0.75010  Biso   1.000  O 
