data_image0
_cell_length_a       13.1718
_cell_length_b       13.1718
_cell_length_c       13.1718
_cell_angle_alpha    27.5572
_cell_angle_beta     27.5572
_cell_angle_gamma    27.5572

_symmetry_space_group_name_H-M    "P 1"
_symmetry_int_tables_number       1

loop_
  _symmetry_equiv_pos_as_xyz
  'x, y, z'

loop_
  _atom_site_label
  _atom_site_occupancy
  _atom_site_fract_x
  _atom_site_fract_y
  _atom_site_fract_z
  _atom_site_thermal_displace_type
  _atom_site_B_iso_or_equiv
  _atom_site_type_symbol
  Ag1      1.0000 0.32506  0.32506  0.32506  Biso   1.000  Ag
  Ag2      1.0000 0.82543  0.82543  0.82543  Biso   1.000  Ag
  Ag3      1.0000 0.16597  0.16597  0.16597  Biso   1.000  Ag
  Ag4      1.0000 0.66617  0.66617  0.66617  Biso   1.000  Ag
  Nb1      1.0000 0.60998  0.87861  0.25167  Biso   1.000  Nb
  Nb2      1.0000 0.87861  0.25167  0.60998  Biso   1.000  Nb
  Nb3      1.0000 0.25167  0.60998  0.87861  Biso   1.000  Nb
  Nb4      1.0000 0.75155  0.37858  0.11004  Biso   1.000  Nb
  Nb5      1.0000 0.37858  0.11004  0.75155  Biso   1.000  Nb
  Nb6      1.0000 0.11004  0.75155  0.37858  Biso   1.000  Nb
  Nb7      1.0000 0.99405  0.99405  0.99405  Biso   1.000  Nb
  Nb8      1.0000 0.49407  0.49407  0.49407  Biso   1.000  Nb
  O1       1.0000 0.25449  0.56616  0.77332  Biso   1.000  O 
  O2       1.0000 0.56616  0.77332  0.25449  Biso   1.000  O 
  O3       1.0000 0.77332  0.25449  0.56616  Biso   1.000  O 
  O4       1.0000 0.27372  0.06505  0.75513  Biso   1.000  O 
  O5       1.0000 0.06505  0.75513  0.27372  Biso   1.000  O 
  O6       1.0000 0.75513  0.27372  0.06505  Biso   1.000  O 
  O7       1.0000 0.71479  0.94589  0.24935  Biso   1.000  O 
  O8       1.0000 0.94589  0.24935  0.71479  Biso   1.000  O 
  O9       1.0000 0.24935  0.71479  0.94589  Biso   1.000  O 
  O10      1.0000 0.74922  0.44545  0.21527  Biso   1.000  O 
  O11      1.0000 0.44545  0.21527  0.74922  Biso   1.000  O 
  O12      1.0000 0.21527  0.74922  0.44545  Biso   1.000  O 
  O13      1.0000 0.99951  0.50134  0.24784  Biso   1.000  O 
  O14      1.0000 0.50134  0.24784  0.99951  Biso   1.000  O 
  O15      1.0000 0.24784  0.99951  0.50134  Biso   1.000  O 
  O16      1.0000 0.74785  0.00159  0.49934  Biso   1.000  O 
  O17      1.0000 0.00159  0.49934  0.74785  Biso   1.000  O 
  O18      1.0000 0.49934  0.74785  0.00159  Biso   1.000  O 
  O19      1.0000 0.40857  0.40857  0.40857  Biso   1.000  O 
  O20      1.0000 0.90884  0.90884  0.90884  Biso   1.000  O 
  O21      1.0000 0.09479  0.09479  0.09479  Biso   1.000  O 
  O22      1.0000 0.59482  0.59482  0.59482  Biso   1.000  O 
