data_image0
_cell_length_a       13.1792
_cell_length_b       13.1792
_cell_length_c       13.1792
_cell_angle_alpha    27.537
_cell_angle_beta     27.537
_cell_angle_gamma    27.537

_symmetry_space_group_name_H-M    "P 1"
_symmetry_int_tables_number       1

loop_
  _symmetry_equiv_pos_as_xyz
  'x, y, z'

loop_
  _atom_site_label
  _atom_site_occupancy
  _atom_site_fract_x
  _atom_site_fract_y
  _atom_site_fract_z
  _atom_site_thermal_displace_type
  _atom_site_B_iso_or_equiv
  _atom_site_type_symbol
  Ag1      1.0000 0.32572  0.32572  0.32572  Biso   1.000  Ag
  Ag2      1.0000 0.82572  0.82572  0.82572  Biso   1.000  Ag
  Ag3      1.0000 0.16655  0.16655  0.16655  Biso   1.000  Ag
  Ag4      1.0000 0.66655  0.66655  0.66655  Biso   1.000  Ag
  Nb1      1.0000 0.61048  0.87892  0.25208  Biso   1.000  Nb
  Nb2      1.0000 0.37892  0.11048  0.75208  Biso   1.000  Nb
  Nb3      1.0000 0.11048  0.75208  0.37892  Biso   1.000  Nb
  Nb4      1.0000 0.75208  0.37892  0.11048  Biso   1.000  Nb
  Nb5      1.0000 0.87892  0.25208  0.61048  Biso   1.000  Nb
  Nb6      1.0000 0.25208  0.61048  0.87892  Biso   1.000  Nb
  Nb7      1.0000 0.99447  0.99447  0.99447  Biso   1.000  Nb
  Nb8      1.0000 0.49447  0.49447  0.49447  Biso   1.000  Nb
  O1       1.0000 0.25541  0.56586  0.77405  Biso   1.000  O 
  O2       1.0000 0.06586  0.75541  0.27405  Biso   1.000  O 
  O3       1.0000 0.75541  0.27405  0.06586  Biso   1.000  O 
  O4       1.0000 0.27405  0.06586  0.75541  Biso   1.000  O 
  O5       1.0000 0.56586  0.77405  0.25541  Biso   1.000  O 
  O6       1.0000 0.77405  0.25541  0.56586  Biso   1.000  O 
  O7       1.0000 0.71526  0.94625  0.24979  Biso   1.000  O 
  O8       1.0000 0.44625  0.21526  0.74979  Biso   1.000  O 
  O9       1.0000 0.21526  0.74979  0.44625  Biso   1.000  O 
  O10      1.0000 0.74979  0.44625  0.21526  Biso   1.000  O 
  O11      1.0000 0.94625  0.24979  0.71526  Biso   1.000  O 
  O12      1.0000 0.24979  0.71526  0.94625  Biso   1.000  O 
  O13      1.0000 0.99982  0.50197  0.24826  Biso   1.000  O 
  O14      1.0000 0.00197  0.49982  0.74826  Biso   1.000  O 
  O15      1.0000 0.49982  0.74826  0.00197  Biso   1.000  O 
  O16      1.0000 0.74826  0.00197  0.49982  Biso   1.000  O 
  O17      1.0000 0.50197  0.24826  0.99982  Biso   1.000  O 
  O18      1.0000 0.24826  0.99982  0.50197  Biso   1.000  O 
  O19      1.0000 0.40919  0.40919  0.40919  Biso   1.000  O 
  O20      1.0000 0.90919  0.90919  0.90919  Biso   1.000  O 
  O21      1.0000 0.09524  0.09524  0.09524  Biso   1.000  O 
  O22      1.0000 0.59524  0.59524  0.59524  Biso   1.000  O 
