data_image0
_cell_length_a       12.9474
_cell_length_b       12.9474
_cell_length_c       12.9474
_cell_angle_alpha    27.9185
_cell_angle_beta     27.9185
_cell_angle_gamma    27.9185

_symmetry_space_group_name_H-M    "P 1"
_symmetry_int_tables_number       1

loop_
  _symmetry_equiv_pos_as_xyz
  'x, y, z'

loop_
  _atom_site_label
  _atom_site_occupancy
  _atom_site_fract_x
  _atom_site_fract_y
  _atom_site_fract_z
  _atom_site_thermal_displace_type
  _atom_site_B_iso_or_equiv
  _atom_site_type_symbol
  Ag1      1.0000 0.32882  0.32882  0.32882  Biso   1.000  Ag
  Ag2      1.0000 0.17118  0.17118  0.17118  Biso   1.000  Ag
  Ag3      1.0000 0.67118  0.67118  0.67118  Biso   1.000  Ag
  Ag4      1.0000 0.82882  0.82882  0.82882  Biso   1.000  Ag
  Ta1      1.0000 0.61445  0.88555  0.25000  Biso   1.000  Ta
  Ta2      1.0000 0.88555  0.25000  0.61445  Biso   1.000  Ta
  Ta3      1.0000 0.25000  0.61445  0.88555  Biso   1.000  Ta
  Ta4      1.0000 0.11445  0.75000  0.38555  Biso   1.000  Ta
  Ta5      1.0000 0.75000  0.38555  0.11445  Biso   1.000  Ta
  Ta6      1.0000 0.38555  0.11445  0.75000  Biso   1.000  Ta
  Ta7      1.0000 0.00000  0.00000  0.00000  Biso   1.000  Ta
  Ta8      1.0000 0.50000  0.50000  0.50000  Biso   1.000  Ta
  O1       1.0000 0.25517  0.56403  0.77394  Biso   1.000  O 
  O2       1.0000 0.93597  0.24483  0.72606  Biso   1.000  O 
  O3       1.0000 0.24483  0.72606  0.93597  Biso   1.000  O 
  O4       1.0000 0.72606  0.93597  0.24483  Biso   1.000  O 
  O5       1.0000 0.43597  0.22606  0.74483  Biso   1.000  O 
  O6       1.0000 0.22606  0.74483  0.43597  Biso   1.000  O 
  O7       1.0000 0.74483  0.43597  0.22606  Biso   1.000  O 
  O8       1.0000 0.06403  0.75517  0.27394  Biso   1.000  O 
  O9       1.0000 0.75517  0.27394  0.06403  Biso   1.000  O 
  O10      1.0000 0.27394  0.06403  0.75517  Biso   1.000  O 
  O11      1.0000 0.56403  0.77394  0.25517  Biso   1.000  O 
  O12      1.0000 0.77394  0.25517  0.56403  Biso   1.000  O 
  O13      1.0000 0.00053  0.49947  0.25000  Biso   1.000  O 
  O14      1.0000 0.49947  0.25000  0.00053  Biso   1.000  O 
  O15      1.0000 0.25000  0.00053  0.49947  Biso   1.000  O 
  O16      1.0000 0.50053  0.75000  0.99947  Biso   1.000  O 
  O17      1.0000 0.75000  0.99947  0.50053  Biso   1.000  O 
  O18      1.0000 0.99947  0.50053  0.75000  Biso   1.000  O 
  O19      1.0000 0.40650  0.40650  0.40650  Biso   1.000  O 
  O20      1.0000 0.09350  0.09350  0.09350  Biso   1.000  O 
  O21      1.0000 0.59350  0.59350  0.59350  Biso   1.000  O 
  O22      1.0000 0.90650  0.90650  0.90650  Biso   1.000  O 
