data_image0
_cell_length_a       3.65952
_cell_length_b       5.79853
_cell_length_c       5.61455
_cell_angle_alpha    72.255
_cell_angle_beta     90
_cell_angle_gamma    90

_symmetry_space_group_name_H-M    "P 1"
_symmetry_int_tables_number       1

loop_
  _symmetry_equiv_pos_as_xyz
  'x, y, z'

loop_
  _atom_site_label
  _atom_site_occupancy
  _atom_site_fract_x
  _atom_site_fract_y
  _atom_site_fract_z
  _atom_site_thermal_displace_type
  _atom_site_B_iso_or_equiv
  _atom_site_type_symbol
  Ag1      1.0000 0.00000  0.00000  0.00000  Biso   1.000  Ag
  Ag2      1.0000 0.50000  1.00000  0.50000  Biso   1.000  Ag
  Ag3      1.0000 0.00000  0.50000  0.50000  Biso   1.000  Ag
  Ag4      1.0000 0.50000  0.50000  1.00000  Biso   1.000  Ag
  O1       1.0000 0.32525  0.70785  0.21719  Biso   1.000  O 
  O2       1.0000 0.17475  0.70785  0.71719  Biso   1.000  O 
  O3       1.0000 0.67475  0.29215  0.78281  Biso   1.000  O 
  O4       1.0000 0.82525  0.29215  0.28281  Biso   1.000  O 
