data_image0
_cell_length_a       8.28985
_cell_length_b       7.1503
_cell_length_c       5.97409
_cell_angle_alpha    77.772
_cell_angle_beta     57.4549
_cell_angle_gamma    44.7731

_symmetry_space_group_name_H-M    "P 1"
_symmetry_int_tables_number       1

loop_
  _symmetry_equiv_pos_as_xyz
  'x, y, z'

loop_
  _atom_site_label
  _atom_site_occupancy
  _atom_site_fract_x
  _atom_site_fract_y
  _atom_site_fract_z
  _atom_site_thermal_displace_type
  _atom_site_B_iso_or_equiv
  _atom_site_type_symbol
  Ag1      1.0000 0.44745  0.80255  0.44745  Biso   1.000  Ag
  Ag2      1.0000 0.19745  0.55255  0.19745  Biso   1.000  Ag
  Ag3      1.0000 0.55255  0.19745  0.55255  Biso   1.000  Ag
  Ag4      1.0000 0.80255  0.44745  0.80255  Biso   1.000  Ag
  Se1      1.0000 0.12500  0.12500  0.12500  Biso   1.000  Se
  Se2      1.0000 0.87500  0.87500  0.87500  Biso   1.000  Se
  O1       1.0000 0.79534  0.30569  0.25982  Biso   1.000  O 
  O2       1.0000 0.69431  0.20466  0.86085  Biso   1.000  O 
  O3       1.0000 0.74018  0.86085  0.20466  Biso   1.000  O 
  O4       1.0000 0.86085  0.74018  0.69431  Biso   1.000  O 
  O5       1.0000 0.20466  0.69431  0.74018  Biso   1.000  O 
  O6       1.0000 0.30569  0.79534  0.13915  Biso   1.000  O 
  O7       1.0000 0.25982  0.13915  0.79534  Biso   1.000  O 
  O8       1.0000 0.13915  0.25982  0.30569  Biso   1.000  O 
