data_image0
_cell_length_a       3.54203
_cell_length_b       5.97765
_cell_length_c       5.62622
_cell_angle_alpha    70.5056
_cell_angle_beta     90
_cell_angle_gamma    90

_symmetry_space_group_name_H-M    "P 1"
_symmetry_int_tables_number       1

loop_
  _symmetry_equiv_pos_as_xyz
  'x, y, z'

loop_
  _atom_site_label
  _atom_site_occupancy
  _atom_site_fract_x
  _atom_site_fract_y
  _atom_site_fract_z
  _atom_site_thermal_displace_type
  _atom_site_B_iso_or_equiv
  _atom_site_type_symbol
  Ag1      1.0000 0.50000  0.50000  0.50000  Biso   1.000  Ag
  Ag2      1.0000 0.00000  0.50000  1.00000  Biso   1.000  Ag
  Ag3      1.0000 0.50000  0.00000  0.00000  Biso   1.000  Ag
  Ag4      1.0000 0.00000  0.00000  0.50000  Biso   1.000  Ag
  O1       1.0000 0.17130  0.29545  0.79036  Biso   1.000  O 
  O2       1.0000 0.67130  0.70455  0.70964  Biso   1.000  O 
  O3       1.0000 0.82870  0.70455  0.20964  Biso   1.000  O 
  O4       1.0000 0.32870  0.29545  0.29036  Biso   1.000  O 
