data_image0
_cell_length_a       9.21413
_cell_length_b       9.21413
_cell_length_c       5.01429
_cell_angle_alpha    78.6775
_cell_angle_beta     78.6775
_cell_angle_gamma    49.408

_symmetry_space_group_name_H-M    "P 1"
_symmetry_int_tables_number       1

loop_
  _symmetry_equiv_pos_as_xyz
  'x, y, z'

loop_
  _atom_site_label
  _atom_site_occupancy
  _atom_site_fract_x
  _atom_site_fract_y
  _atom_site_fract_z
  _atom_site_thermal_displace_type
  _atom_site_B_iso_or_equiv
  _atom_site_type_symbol
  Ag1      1.0000 0.99314  0.80237  0.06179  Biso   1.000  Ag
  Ag2      1.0000 0.80237  0.99314  0.56179  Biso   1.000  Ag
  Ag3      1.0000 0.00686  0.19763  0.93821  Biso   1.000  Ag
  Ag4      1.0000 0.19763  0.00686  0.43821  Biso   1.000  Ag
  Ag5      1.0000 0.12212  0.37625  0.22953  Biso   1.000  Ag
  Ag6      1.0000 0.37625  0.12212  0.72953  Biso   1.000  Ag
  Ag7      1.0000 0.87788  0.62375  0.77047  Biso   1.000  Ag
  Ag8      1.0000 0.62375  0.87788  0.27047  Biso   1.000  Ag
  Ti1      1.0000 0.30089  0.54490  0.60850  Biso   1.000  Ti
  Ti2      1.0000 0.54490  0.30089  0.10850  Biso   1.000  Ti
  Ti3      1.0000 0.69911  0.45510  0.39150  Biso   1.000  Ti
  Ti4      1.0000 0.45510  0.69911  0.89150  Biso   1.000  Ti
  O1       1.0000 0.22916  0.77084  0.75000  Biso   1.000  O 
  O2       1.0000 0.77084  0.22916  0.25000  Biso   1.000  O 
  O3       1.0000 0.57328  0.42672  0.75000  Biso   1.000  O 
  O4       1.0000 0.42672  0.57328  0.25000  Biso   1.000  O 
  O5       1.0000 0.05855  0.66696  0.50969  Biso   1.000  O 
  O6       1.0000 0.66696  0.05855  0.00969  Biso   1.000  O 
  O7       1.0000 0.94145  0.33304  0.49031  Biso   1.000  O 
  O8       1.0000 0.33304  0.94145  0.99031  Biso   1.000  O 
  O9       1.0000 0.29232  0.43267  0.97324  Biso   1.000  O 
  O10      1.0000 0.43267  0.29232  0.47324  Biso   1.000  O 
  O11      1.0000 0.70768  0.56733  0.02676  Biso   1.000  O 
  O12      1.0000 0.56733  0.70768  0.52676  Biso   1.000  O 
