data_image0
_cell_length_a       3.62323
_cell_length_b       15.5471
_cell_length_c       9.45283
_cell_angle_alpha    51.6462
_cell_angle_beta     90
_cell_angle_gamma    90

_symmetry_space_group_name_H-M    "P 1"
_symmetry_int_tables_number       1

loop_
  _symmetry_equiv_pos_as_xyz
  'x, y, z'

loop_
  _atom_site_label
  _atom_site_occupancy
  _atom_site_fract_x
  _atom_site_fract_y
  _atom_site_fract_z
  _atom_site_thermal_displace_type
  _atom_site_B_iso_or_equiv
  _atom_site_type_symbol
  Ag1      1.0000 0.00000  0.88146  0.51159  Biso   1.000  Ag
  Ag2      1.0000 0.00000  0.11854  0.48841  Biso   1.000  Ag
  Ag3      1.0000 0.50000  0.61854  0.48841  Biso   1.000  Ag
  Ag4      1.0000 0.50000  0.38146  0.51159  Biso   1.000  Ag
  V1       1.0000 0.00000  0.85239  0.14284  Biso   1.000  V 
  V2       1.0000 0.00000  0.14761  0.85716  Biso   1.000  V 
  V3       1.0000 0.50000  0.64761  0.85716  Biso   1.000  V 
  V4       1.0000 0.50000  0.35239  0.14284  Biso   1.000  V 
  V5       1.0000 0.00000  0.63456  0.15045  Biso   1.000  V 
  V6       1.0000 0.00000  0.36544  0.84955  Biso   1.000  V 
  V7       1.0000 0.50000  0.86544  0.84955  Biso   1.000  V 
  V8       1.0000 0.50000  0.13456  0.15045  Biso   1.000  V 
  O1       1.0000 0.00000  0.00000  0.00000  Biso   1.000  O 
  O2       1.0000 0.50000  0.50000  0.00000  Biso   1.000  O 
  O3       1.0000 0.00000  0.65200  0.91303  Biso   1.000  O 
  O4       1.0000 0.00000  0.34800  0.08697  Biso   1.000  O 
  O5       1.0000 0.50000  0.84800  0.08697  Biso   1.000  O 
  O6       1.0000 0.50000  0.15200  0.91303  Biso   1.000  O 
  O7       1.0000 0.00000  0.83550  0.91919  Biso   1.000  O 
  O8       1.0000 0.00000  0.16450  0.08081  Biso   1.000  O 
  O9       1.0000 0.50000  0.66450  0.08081  Biso   1.000  O 
  O10      1.0000 0.50000  0.33550  0.91919  Biso   1.000  O 
  O11      1.0000 0.00000  0.82508  0.33996  Biso   1.000  O 
  O12      1.0000 0.00000  0.17492  0.66004  Biso   1.000  O 
  O13      1.0000 0.50000  0.67492  0.66004  Biso   1.000  O 
  O14      1.0000 0.50000  0.32508  0.33996  Biso   1.000  O 
  O15      1.0000 0.00000  0.68269  0.28005  Biso   1.000  O 
  O16      1.0000 0.00000  0.31731  0.71995  Biso   1.000  O 
  O17      1.0000 0.50000  0.81731  0.71995  Biso   1.000  O 
  O18      1.0000 0.50000  0.18269  0.28005  Biso   1.000  O 
  O19      1.0000 0.00000  0.50002  0.31371  Biso   1.000  O 
  O20      1.0000 0.00000  0.49998  0.68629  Biso   1.000  O 
  O21      1.0000 0.50000  0.99998  0.68629  Biso   1.000  O 
  O22      1.0000 0.50000  0.00002  0.31371  Biso   1.000  O 
