data_image0
_cell_length_a       7.01265
_cell_length_b       6.59083
_cell_length_c       13.4744
_cell_angle_alpha    89.3327
_cell_angle_beta     90
_cell_angle_gamma    90

_symmetry_space_group_name_H-M    "P 1"
_symmetry_int_tables_number       1

loop_
  _symmetry_equiv_pos_as_xyz
  'x, y, z'

loop_
  _atom_site_label
  _atom_site_occupancy
  _atom_site_fract_x
  _atom_site_fract_y
  _atom_site_fract_z
  _atom_site_thermal_displace_type
  _atom_site_B_iso_or_equiv
  _atom_site_type_symbol
  Ag1      1.0000 0.16859  0.51761  0.07512  Biso   1.000  Ag
  Ag2      1.0000 0.33141  0.51761  0.57512  Biso   1.000  Ag
  Ag3      1.0000 0.83141  0.48239  0.92488  Biso   1.000  Ag
  Ag4      1.0000 0.66859  0.48239  0.42488  Biso   1.000  Ag
  Ag5      1.0000 0.04992  0.46513  0.31360  Biso   1.000  Ag
  Ag6      1.0000 0.45008  0.46513  0.81360  Biso   1.000  Ag
  Ag7      1.0000 0.95008  0.53487  0.68640  Biso   1.000  Ag
  Ag8      1.0000 0.54992  0.53487  0.18640  Biso   1.000  Ag
  Te1      1.0000 0.86356  0.99307  0.40990  Biso   1.000  Te
  Te2      1.0000 0.63644  0.99307  0.90990  Biso   1.000  Te
  Te3      1.0000 0.13644  0.00693  0.59010  Biso   1.000  Te
  Te4      1.0000 0.36356  0.00693  0.09010  Biso   1.000  Te
  Te5      1.0000 0.34161  0.86289  0.35823  Biso   1.000  Te
  Te6      1.0000 0.15839  0.86289  0.85823  Biso   1.000  Te
  Te7      1.0000 0.65839  0.13711  0.64177  Biso   1.000  Te
  Te8      1.0000 0.84161  0.13711  0.14177  Biso   1.000  Te
  O1       1.0000 0.18286  0.83486  0.01659  Biso   1.000  O 
  O2       1.0000 0.31714  0.83486  0.51659  Biso   1.000  O 
  O3       1.0000 0.81714  0.16514  0.98341  Biso   1.000  O 
  O4       1.0000 0.68286  0.16514  0.48341  Biso   1.000  O 
  O5       1.0000 0.05135  0.82720  0.33829  Biso   1.000  O 
  O6       1.0000 0.44865  0.82720  0.83829  Biso   1.000  O 
  O7       1.0000 0.94865  0.17280  0.66171  Biso   1.000  O 
  O8       1.0000 0.55135  0.17280  0.16171  Biso   1.000  O 
  O9       1.0000 0.58517  0.84243  0.03673  Biso   1.000  O 
  O10      1.0000 0.91483  0.84243  0.53673  Biso   1.000  O 
  O11      1.0000 0.41483  0.15757  0.96327  Biso   1.000  O 
  O12      1.0000 0.08517  0.15757  0.46327  Biso   1.000  O 
  O13      1.0000 0.66748  0.80712  0.37017  Biso   1.000  O 
  O14      1.0000 0.83252  0.80712  0.87017  Biso   1.000  O 
  O15      1.0000 0.33252  0.19288  0.62983  Biso   1.000  O 
  O16      1.0000 0.16748  0.19288  0.12983  Biso   1.000  O 
  O17      1.0000 0.35148  0.81017  0.19761  Biso   1.000  O 
  O18      1.0000 0.14852  0.81017  0.69761  Biso   1.000  O 
  O19      1.0000 0.64852  0.18983  0.80239  Biso   1.000  O 
  O20      1.0000 0.85148  0.18983  0.30239  Biso   1.000  O 
  O21      1.0000 0.35153  0.57783  0.35903  Biso   1.000  O 
  O22      1.0000 0.14847  0.57783  0.85903  Biso   1.000  O 
  O23      1.0000 0.64847  0.42217  0.64097  Biso   1.000  O 
  O24      1.0000 0.85153  0.42217  0.14097  Biso   1.000  O 
