data_image0
_cell_length_a       7.0486
_cell_length_b       7.0486
_cell_length_c       6.36771
_cell_angle_alpha    90.7307
_cell_angle_beta     90.7307
_cell_angle_gamma    53.3086

_symmetry_space_group_name_H-M    "P 1"
_symmetry_int_tables_number       1

loop_
  _symmetry_equiv_pos_as_xyz
  'x, y, z'

loop_
  _atom_site_label
  _atom_site_occupancy
  _atom_site_fract_x
  _atom_site_fract_y
  _atom_site_fract_z
  _atom_site_thermal_displace_type
  _atom_site_B_iso_or_equiv
  _atom_site_type_symbol
  Ag1      1.0000 0.88464  0.37553  0.38297  Biso   1.000  Ag
  Ag2      1.0000 0.37553  0.88464  0.38297  Biso   1.000  Ag
  Ag3      1.0000 0.11536  0.62447  0.61703  Biso   1.000  Ag
  Ag4      1.0000 0.62447  0.11536  0.61703  Biso   1.000  Ag
  V1       1.0000 0.38837  0.38837  0.08777  Biso   1.000  V 
  V2       1.0000 0.61163  0.61163  0.91223  Biso   1.000  V 
  P1       1.0000 0.15219  0.15219  0.84798  Biso   1.000  P 
  P2       1.0000 0.84781  0.84781  0.15202  Biso   1.000  P 
  O1       1.0000 0.51311  0.51311  0.20439  Biso   1.000  O 
  O2       1.0000 0.48689  0.48689  0.79561  Biso   1.000  O 
  O3       1.0000 0.92105  0.31427  0.97619  Biso   1.000  O 
  O4       1.0000 0.31427  0.92105  0.97619  Biso   1.000  O 
  O5       1.0000 0.07895  0.68573  0.02381  Biso   1.000  O 
  O6       1.0000 0.68573  0.07895  0.02381  Biso   1.000  O 
  O7       1.0000 0.27574  0.27574  0.82718  Biso   1.000  O 
  O8       1.0000 0.72426  0.72426  0.17282  Biso   1.000  O 
  O9       1.0000 0.90219  0.90219  0.37043  Biso   1.000  O 
  O10      1.0000 0.09781  0.09781  0.62957  Biso   1.000  O 
  O11      1.0000 0.30663  0.30663  0.29078  Biso   1.000  O 
  O12      1.0000 0.69337  0.69337  0.70922  Biso   1.000  O 
