data_image0
_cell_length_a       10.64
_cell_length_b       10.6401
_cell_length_c       5.01783
_cell_angle_alpha    90.0017
_cell_angle_beta     90.0018
_cell_angle_gamma    90

_symmetry_space_group_name_H-M    "P 1"
_symmetry_int_tables_number       1

loop_
  _symmetry_equiv_pos_as_xyz
  'x, y, z'

loop_
  _atom_site_label
  _atom_site_occupancy
  _atom_site_fract_x
  _atom_site_fract_y
  _atom_site_fract_z
  _atom_site_thermal_displace_type
  _atom_site_B_iso_or_equiv
  _atom_site_type_symbol
  Ag1      1.0000 0.00000  0.00000  0.50000  Biso   1.000  Ag
  Ag2      1.0000 0.50000  0.50000  0.50000  Biso   1.000  Ag
  Ag3      1.0000 0.00000  0.50000  0.50000  Biso   1.000  Ag
  Ag4      1.0000 0.50000  0.00000  0.50000  Biso   1.000  Ag
  Sr1      1.0000 0.25000  0.25000  0.50000  Biso   1.000  Sr
  Sr2      1.0000 0.75000  0.75000  0.50000  Biso   1.000  Sr
  V1       1.0000 0.53307  0.25001  0.99999  Biso   1.000  V 
  V2       1.0000 0.75000  0.03307  0.99998  Biso   1.000  V 
  V3       1.0000 0.25000  0.96694  0.00001  Biso   1.000  V 
  V4       1.0000 0.25000  0.53305  0.99999  Biso   1.000  V 
  V5       1.0000 0.75001  0.46695  0.00001  Biso   1.000  V 
  V6       1.0000 0.03306  0.74999  0.99999  Biso   1.000  V 
  V7       1.0000 0.96696  0.25000  0.00002  Biso   1.000  V 
  V8       1.0000 0.46694  0.74999  0.00001  Biso   1.000  V 
  O1       1.0000 0.63331  0.36667  0.15845  Biso   1.000  O 
  O2       1.0000 0.86667  0.13331  0.15845  Biso   1.000  O 
  O3       1.0000 0.36668  0.86668  0.15844  Biso   1.000  O 
  O4       1.0000 0.13332  0.63332  0.15844  Biso   1.000  O 
  O5       1.0000 0.13332  0.86668  0.84156  Biso   1.000  O 
  O6       1.0000 0.63332  0.13333  0.84159  Biso   1.000  O 
  O7       1.0000 0.86668  0.36668  0.84152  Biso   1.000  O 
  O8       1.0000 0.36669  0.63333  0.84156  Biso   1.000  O 
  O9       1.0000 0.17829  0.05346  0.23626  Biso   1.000  O 
  O10      1.0000 0.55347  0.67828  0.23626  Biso   1.000  O 
  O11      1.0000 0.05347  0.32172  0.23627  Biso   1.000  O 
  O12      1.0000 0.44655  0.17829  0.23627  Biso   1.000  O 
  O13      1.0000 0.94653  0.82173  0.23627  Biso   1.000  O 
  O14      1.0000 0.44654  0.32172  0.76376  Biso   1.000  O 
  O15      1.0000 0.94654  0.67828  0.76374  Biso   1.000  O 
  O16      1.0000 0.55347  0.82173  0.76373  Biso   1.000  O 
  O17      1.0000 0.05348  0.17827  0.76371  Biso   1.000  O 
  O18      1.0000 0.67828  0.55347  0.76370  Biso   1.000  O 
  O19      1.0000 0.32173  0.05346  0.76373  Biso   1.000  O 
  O20      1.0000 0.17829  0.44654  0.76375  Biso   1.000  O 
  O21      1.0000 0.82171  0.94655  0.76375  Biso   1.000  O 
  O22      1.0000 0.32172  0.44654  0.23626  Biso   1.000  O 
  O23      1.0000 0.67828  0.94655  0.23627  Biso   1.000  O 
  O24      1.0000 0.82173  0.55347  0.23627  Biso   1.000  O 
