data_image0
_cell_length_a       7.42561
_cell_length_b       5.42836
_cell_length_c       6.90477
_cell_angle_alpha    78.6447
_cell_angle_beta     90
_cell_angle_gamma    90

_symmetry_space_group_name_H-M    "P 1"
_symmetry_int_tables_number       1

loop_
  _symmetry_equiv_pos_as_xyz
  'x, y, z'

loop_
  _atom_site_label
  _atom_site_occupancy
  _atom_site_fract_x
  _atom_site_fract_y
  _atom_site_fract_z
  _atom_site_thermal_displace_type
  _atom_site_B_iso_or_equiv
  _atom_site_type_symbol
  Ag1      1.0000 0.00000  0.00000  0.00000  Biso   1.000  Ag
  Ag2      1.0000 0.50000  0.00000  0.00000  Biso   1.000  Ag
  Ag3      1.0000 0.25000  0.57059  0.17173  Biso   1.000  Ag
  Ag4      1.0000 0.75000  0.42941  0.82827  Biso   1.000  Ag
  Te1      1.0000 0.00000  0.00000  0.50000  Biso   1.000  Te
  Te2      1.0000 0.50000  0.00000  0.50000  Biso   1.000  Te
  Te3      1.0000 0.25000  0.48027  0.67988  Biso   1.000  Te
  Te4      1.0000 0.75000  0.51973  0.32012  Biso   1.000  Te
  O1       1.0000 0.25000  0.32567  0.94689  Biso   1.000  O 
  O2       1.0000 0.75000  0.67433  0.05311  Biso   1.000  O 
  O3       1.0000 0.25000  0.10893  0.43440  Biso   1.000  O 
  O4       1.0000 0.75000  0.89107  0.56560  Biso   1.000  O 
  O5       1.0000 0.01536  0.75795  0.33033  Biso   1.000  O 
  O6       1.0000 0.48464  0.75795  0.33033  Biso   1.000  O 
  O7       1.0000 0.98464  0.24205  0.66967  Biso   1.000  O 
  O8       1.0000 0.51536  0.24205  0.66967  Biso   1.000  O 
  O9       1.0000 0.06513  0.74223  0.73140  Biso   1.000  O 
  O10      1.0000 0.43487  0.74223  0.73140  Biso   1.000  O 
  O11      1.0000 0.93487  0.25777  0.26860  Biso   1.000  O 
  O12      1.0000 0.56513  0.25777  0.26860  Biso   1.000  O 
