data_image0
_cell_length_a       7.3461
_cell_length_b       7.3461
_cell_length_c       7.3461
_cell_angle_alpha    120.089
_cell_angle_beta     117.983
_cell_angle_gamma    91.6875

_symmetry_space_group_name_H-M    "P 1"
_symmetry_int_tables_number       1

loop_
  _symmetry_equiv_pos_as_xyz
  'x, y, z'

loop_
  _atom_site_label
  _atom_site_occupancy
  _atom_site_fract_x
  _atom_site_fract_y
  _atom_site_fract_z
  _atom_site_thermal_displace_type
  _atom_site_B_iso_or_equiv
  _atom_site_type_symbol
  Ag1      1.0000 0.50000  0.00000  0.50000  Biso   1.000  Ag
  Ag2      1.0000 0.00000  0.50000  0.50000  Biso   1.000  Ag
  Ag3      1.0000 0.50000  1.00000  1.00000  Biso   1.000  Ag
  Ag4      1.0000 0.50000  0.50000  0.50000  Biso   1.000  Ag
  Te1      1.0000 0.00000  0.00000  0.00000  Biso   1.000  Te
  Te2      1.0000 0.50000  0.50000  0.00000  Biso   1.000  Te
  Te3      1.0000 1.00000  0.00000  0.50000  Biso   1.000  Te
  Te4      1.0000 0.00000  0.50000  0.00000  Biso   1.000  Te
  O1       1.0000 0.90819  0.25000  0.65819  Biso   1.000  O 
  O2       1.0000 0.09181  0.75000  0.34181  Biso   1.000  O 
  O3       1.0000 0.30859  0.08711  0.22148  Biso   1.000  O 
  O4       1.0000 0.36563  0.58711  0.77852  Biso   1.000  O 
  O5       1.0000 0.63437  0.41289  0.22148  Biso   1.000  O 
  O6       1.0000 0.69141  0.91289  0.77852  Biso   1.000  O 
  O7       1.0000 0.68944  0.82462  0.27609  Biso   1.000  O 
  O8       1.0000 0.04853  0.91335  0.72391  Biso   1.000  O 
  O9       1.0000 0.95147  0.67538  0.86482  Biso   1.000  O 
  O10      1.0000 0.68944  0.41335  0.86482  Biso   1.000  O 
  O11      1.0000 0.31056  0.17538  0.72391  Biso   1.000  O 
  O12      1.0000 0.95147  0.08665  0.27609  Biso   1.000  O 
  O13      1.0000 0.04853  0.32462  0.13518  Biso   1.000  O 
  O14      1.0000 0.31056  0.58665  0.13518  Biso   1.000  O 
