data_image0
_cell_length_a       8.58097
_cell_length_b       6.05328
_cell_length_c       6.65591
_cell_angle_alpha    91.4371
_cell_angle_beta     90
_cell_angle_gamma    90

_symmetry_space_group_name_H-M    "P 1"
_symmetry_int_tables_number       1

loop_
  _symmetry_equiv_pos_as_xyz
  'x, y, z'

loop_
  _atom_site_label
  _atom_site_occupancy
  _atom_site_fract_x
  _atom_site_fract_y
  _atom_site_fract_z
  _atom_site_thermal_displace_type
  _atom_site_B_iso_or_equiv
  _atom_site_type_symbol
  Ag1      1.0000 0.50000  0.00000  0.00000  Biso   1.000  Ag
  Ag2      1.0000 0.50000  0.00000  0.50000  Biso   1.000  Ag
  Ag3      1.0000 0.00000  0.50000  0.00000  Biso   1.000  Ag
  Ag4      1.0000 0.00000  0.50000  0.50000  Biso   1.000  Ag
  Ag5      1.0000 0.25000  0.75000  0.75000  Biso   1.000  Ag
  Ag6      1.0000 0.25000  0.25000  0.75000  Biso   1.000  Ag
  Ag7      1.0000 0.75000  0.25000  0.25000  Biso   1.000  Ag
  Ag8      1.0000 0.75000  0.75000  0.25000  Biso   1.000  Ag
  Pb1      1.0000 0.12186  0.00000  0.25000  Biso   1.000  Pb
  Pb2      1.0000 0.87814  1.00000  0.75000  Biso   1.000  Pb
  Pb3      1.0000 0.62186  0.50000  0.75000  Biso   1.000  Pb
  Pb4      1.0000 0.37814  0.50000  0.25000  Biso   1.000  Pb
  O1       1.0000 0.20040  0.68704  0.44359  Biso   1.000  O 
  O2       1.0000 0.20040  0.31296  0.05641  Biso   1.000  O 
  O3       1.0000 0.79960  0.31296  0.55641  Biso   1.000  O 
  O4       1.0000 0.79960  0.68704  0.94359  Biso   1.000  O 
  O5       1.0000 0.70040  0.81296  0.55641  Biso   1.000  O 
  O6       1.0000 0.29960  0.81296  0.05641  Biso   1.000  O 
  O7       1.0000 0.29960  0.18704  0.44359  Biso   1.000  O 
  O8       1.0000 0.70040  0.18704  0.94359  Biso   1.000  O 
