data_image0
_cell_length_a       8.3931
_cell_length_b       6.76713
_cell_length_c       5.65102
_cell_angle_alpha    84.5351
_cell_angle_beta     53.3799
_cell_angle_gamma    42.085

_symmetry_space_group_name_H-M    "P 1"
_symmetry_int_tables_number       1

loop_
  _symmetry_equiv_pos_as_xyz
  'x, y, z'

loop_
  _atom_site_label
  _atom_site_occupancy
  _atom_site_fract_x
  _atom_site_fract_y
  _atom_site_fract_z
  _atom_site_thermal_displace_type
  _atom_site_B_iso_or_equiv
  _atom_site_type_symbol
  Ag1      1.0000 0.43007  0.66323  0.83687  Biso   1.000  Ag
  Ag2      1.0000 0.06984  0.83687  0.66323  Biso   1.000  Ag
  Ag3      1.0000 0.58678  0.81993  0.18016  Biso   1.000  Ag
  Ag4      1.0000 0.41313  0.18016  0.81993  Biso   1.000  Ag
  O1       1.0000 0.52331  0.31196  0.94157  Biso   1.000  O 
  O2       1.0000 0.22316  0.94157  0.31196  Biso   1.000  O 
  O3       1.0000 0.93804  0.72669  0.02684  Biso   1.000  O 
  O4       1.0000 0.30843  0.02684  0.72669  Biso   1.000  O 
  O5       1.0000 0.57442  0.42558  0.42558  Biso   1.000  O 
  O6       1.0000 0.82442  0.67558  0.67558  Biso   1.000  O 
