data_image0
_cell_length_a       8.67944
_cell_length_b       8.67944
_cell_length_c       8.58076
_cell_angle_alpha    61.4643
_cell_angle_beta     61.4643
_cell_angle_gamma    37.8289

_symmetry_space_group_name_H-M    "P 1"
_symmetry_int_tables_number       1

loop_
  _symmetry_equiv_pos_as_xyz
  'x, y, z'

loop_
  _atom_site_label
  _atom_site_occupancy
  _atom_site_fract_x
  _atom_site_fract_y
  _atom_site_fract_z
  _atom_site_thermal_displace_type
  _atom_site_B_iso_or_equiv
  _atom_site_type_symbol
  Pd1      1.0000 0.00000  0.00000  0.50000  Biso   1.000  Pd
  Pd2      1.0000 0.00000  0.00000  0.00000  Biso   1.000  Pd
  Ag1      1.0000 0.42521  0.05589  0.70952  Biso   1.000  Ag
  Ag2      1.0000 0.94411  0.57479  0.79048  Biso   1.000  Ag
  Ag3      1.0000 0.57479  0.94411  0.29048  Biso   1.000  Ag
  Ag4      1.0000 0.05589  0.42521  0.20952  Biso   1.000  Ag
  P1       1.0000 0.75931  0.44400  0.65116  Biso   1.000  P 
  P2       1.0000 0.55600  0.24069  0.84884  Biso   1.000  P 
  P3       1.0000 0.24069  0.55600  0.34884  Biso   1.000  P 
  P4       1.0000 0.44400  0.75931  0.15116  Biso   1.000  P 
  O1       1.0000 0.29298  0.35036  0.92260  Biso   1.000  O 
  O2       1.0000 0.64964  0.70702  0.57740  Biso   1.000  O 
  O3       1.0000 0.70702  0.64964  0.07740  Biso   1.000  O 
  O4       1.0000 0.35036  0.29298  0.42260  Biso   1.000  O 
  O5       1.0000 0.52427  0.47573  0.75000  Biso   1.000  O 
  O6       1.0000 0.47573  0.52427  0.25000  Biso   1.000  O 
  O7       1.0000 0.70339  0.08416  0.70249  Biso   1.000  O 
  O8       1.0000 0.91584  0.29661  0.79751  Biso   1.000  O 
  O9       1.0000 0.29661  0.91584  0.29751  Biso   1.000  O 
  O10      1.0000 0.08416  0.70339  0.20249  Biso   1.000  O 
  O11      1.0000 0.29931  0.91152  0.99470  Biso   1.000  O 
  O12      1.0000 0.08848  0.70069  0.50530  Biso   1.000  O 
  O13      1.0000 0.70069  0.08848  0.00530  Biso   1.000  O 
  O14      1.0000 0.91152  0.29931  0.49470  Biso   1.000  O 
