data_image0
_cell_length_a       7.35015
_cell_length_b       7.49213
_cell_length_c       9.72757
_cell_angle_alpha    95.6847
_cell_angle_beta     94.9759
_cell_angle_gamma    119.17

_symmetry_space_group_name_H-M    "P 1"
_symmetry_int_tables_number       1

loop_
  _symmetry_equiv_pos_as_xyz
  'x, y, z'

loop_
  _atom_site_label
  _atom_site_occupancy
  _atom_site_fract_x
  _atom_site_fract_y
  _atom_site_fract_z
  _atom_site_thermal_displace_type
  _atom_site_B_iso_or_equiv
  _atom_site_type_symbol
  Ag1      1.0000 0.01481  0.18093  0.36415  Biso   1.000  Ag
  Ag2      1.0000 0.98519  0.81907  0.63585  Biso   1.000  Ag
  Ag3      1.0000 0.76858  0.27172  0.01838  Biso   1.000  Ag
  Ag4      1.0000 0.23142  0.72828  0.98162  Biso   1.000  Ag
  Te1      1.0000 0.49445  0.30722  0.68607  Biso   1.000  Te
  Te2      1.0000 0.50555  0.69278  0.31393  Biso   1.000  Te
  Te3      1.0000 0.50946  0.19148  0.31076  Biso   1.000  Te
  Te4      1.0000 0.49054  0.80852  0.68924  Biso   1.000  Te
  Te5      1.0000 0.97754  0.31376  0.67893  Biso   1.000  Te
  Te6      1.0000 0.02246  0.68624  0.32107  Biso   1.000  Te
  Te7      1.0000 0.22554  0.21823  0.00162  Biso   1.000  Te
  Te8      1.0000 0.77446  0.78177  0.99838  Biso   1.000  Te
  O1       1.0000 0.62467  0.30623  0.51382  Biso   1.000  O 
  O2       1.0000 0.37533  0.69377  0.48618  Biso   1.000  O 
  O3       1.0000 0.40230  0.39037  0.30861  Biso   1.000  O 
  O4       1.0000 0.59770  0.60963  0.69139  Biso   1.000  O 
  O5       1.0000 0.38535  0.00741  0.67674  Biso   1.000  O 
  O6       1.0000 0.61465  0.99259  0.32326  Biso   1.000  O 
  O7       1.0000 0.20968  0.24458  0.61145  Biso   1.000  O 
  O8       1.0000 0.79032  0.75542  0.38855  Biso   1.000  O 
  O9       1.0000 0.78364  0.39593  0.76952  Biso   1.000  O 
  O10      1.0000 0.21636  0.60407  0.23048  Biso   1.000  O 
  O11      1.0000 0.23821  0.99617  0.35815  Biso   1.000  O 
  O12      1.0000 0.76179  0.00383  0.64185  Biso   1.000  O 
  O13      1.0000 0.20123  0.63009  0.72145  Biso   1.000  O 
  O14      1.0000 0.79877  0.36991  0.27855  Biso   1.000  O 
  O15      1.0000 0.45860  0.33199  0.88458  Biso   1.000  O 
  O16      1.0000 0.54140  0.66801  0.11542  Biso   1.000  O 
  O17      1.0000 0.41352  0.10488  0.11064  Biso   1.000  O 
  O18      1.0000 0.58648  0.89512  0.88936  Biso   1.000  O 
  O19      1.0000 0.05346  0.31345  0.87193  Biso   1.000  O 
  O20      1.0000 0.94654  0.68655  0.12807  Biso   1.000  O 
  O21      1.0000 0.07468  0.94905  0.89131  Biso   1.000  O 
  O22      1.0000 0.92532  0.05095  0.10869  Biso   1.000  O 
