data_image0
_cell_length_a       4.55278
_cell_length_b       7.13169
_cell_length_c       9.8824
_cell_angle_alpha    90
_cell_angle_beta     90
_cell_angle_gamma    90

_symmetry_space_group_name_H-M    "P 1"
_symmetry_int_tables_number       1

loop_
  _symmetry_equiv_pos_as_xyz
  'x, y, z'

loop_
  _atom_site_label
  _atom_site_occupancy
  _atom_site_fract_x
  _atom_site_fract_y
  _atom_site_fract_z
  _atom_site_thermal_displace_type
  _atom_site_B_iso_or_equiv
  _atom_site_type_symbol
  Ag1      1.0000 0.52080  0.39599  0.21073  Biso   1.000  Ag
  Ag2      1.0000 0.47920  0.89599  0.28927  Biso   1.000  Ag
  Ag3      1.0000 0.02080  0.10401  0.78927  Biso   1.000  Ag
  Ag4      1.0000 0.97920  0.60401  0.71073  Biso   1.000  Ag
  Ag5      1.0000 0.89949  0.61945  0.37734  Biso   1.000  Ag
  Ag6      1.0000 0.10051  0.11945  0.12266  Biso   1.000  Ag
  Ag7      1.0000 0.39949  0.88055  0.62266  Biso   1.000  Ag
  Ag8      1.0000 0.60051  0.38055  0.87734  Biso   1.000  Ag
  Si1      1.0000 0.96190  0.13834  0.43834  Biso   1.000  Si
  Si2      1.0000 0.03810  0.63834  0.06166  Biso   1.000  Si
  Si3      1.0000 0.46190  0.36166  0.56166  Biso   1.000  Si
  Si4      1.0000 0.53810  0.86166  0.93834  Biso   1.000  Si
  O1       1.0000 0.21933  0.30272  0.44372  Biso   1.000  O 
  O2       1.0000 0.78067  0.80272  0.05628  Biso   1.000  O 
  O3       1.0000 0.71933  0.19728  0.55628  Biso   1.000  O 
  O4       1.0000 0.28067  0.69728  0.94372  Biso   1.000  O 
  O5       1.0000 0.58870  0.56947  0.53048  Biso   1.000  O 
  O6       1.0000 0.41130  0.06947  0.96952  Biso   1.000  O 
  O7       1.0000 0.08870  0.93053  0.46952  Biso   1.000  O 
  O8       1.0000 0.91130  0.43053  0.03048  Biso   1.000  O 
  O9       1.0000 0.19770  0.64670  0.21030  Biso   1.000  O 
  O10      1.0000 0.80230  0.14670  0.28970  Biso   1.000  O 
  O11      1.0000 0.69770  0.85330  0.78970  Biso   1.000  O 
  O12      1.0000 0.30230  0.35330  0.71030  Biso   1.000  O 
