data_image0
_cell_length_a       6.72696
_cell_length_b       6.74662
_cell_length_c       6.84864
_cell_angle_alpha    87.5986
_cell_angle_beta     62.9738
_cell_angle_gamma    85.435

_symmetry_space_group_name_H-M    "P 1"
_symmetry_int_tables_number       1

loop_
  _symmetry_equiv_pos_as_xyz
  'x, y, z'

loop_
  _atom_site_label
  _atom_site_occupancy
  _atom_site_fract_x
  _atom_site_fract_y
  _atom_site_fract_z
  _atom_site_thermal_displace_type
  _atom_site_B_iso_or_equiv
  _atom_site_type_symbol
  Ag1      1.0000 0.80282  0.11987  0.20689  Biso   1.000  Ag
  Ag2      1.0000 0.19718  0.88013  0.79311  Biso   1.000  Ag
  Ag3      1.0000 0.79773  0.62838  0.56251  Biso   1.000  Ag
  Ag4      1.0000 0.20227  0.37162  0.43749  Biso   1.000  Ag
  S1       1.0000 0.70847  0.12130  0.72319  Biso   1.000  S 
  S2       1.0000 0.29153  0.87870  0.27681  Biso   1.000  S 
  S3       1.0000 0.29778  0.38129  0.88165  Biso   1.000  S 
  S4       1.0000 0.70222  0.61871  0.11835  Biso   1.000  S 
  O1       1.0000 0.60881  0.96446  0.66494  Biso   1.000  O 
  O2       1.0000 0.39119  0.03554  0.33506  Biso   1.000  O 
  O3       1.0000 0.82191  0.25688  0.53694  Biso   1.000  O 
  O4       1.0000 0.17809  0.74312  0.46306  Biso   1.000  O 
  O5       1.0000 0.83809  0.05630  0.83784  Biso   1.000  O 
  O6       1.0000 0.16191  0.94370  0.16216  Biso   1.000  O 
  O7       1.0000 0.50491  0.25556  0.91340  Biso   1.000  O 
  O8       1.0000 0.49509  0.74444  0.08660  Biso   1.000  O 
  O9       1.0000 0.13794  0.41293  0.10948  Biso   1.000  O 
  O10      1.0000 0.86206  0.58707  0.89052  Biso   1.000  O 
  O11      1.0000 0.23066  0.24974  0.76143  Biso   1.000  O 
  O12      1.0000 0.76934  0.75026  0.23857  Biso   1.000  O 
  O13      1.0000 0.39533  0.55977  0.75838  Biso   1.000  O 
  O14      1.0000 0.60467  0.44023  0.24162  Biso   1.000  O 
