data_image0
_cell_length_a       9.96642
_cell_length_b       4.80714
_cell_length_c       7.14612
_cell_angle_alpha    87.9665
_cell_angle_beta     90
_cell_angle_gamma    90

_symmetry_space_group_name_H-M    "P 1"
_symmetry_int_tables_number       1

loop_
  _symmetry_equiv_pos_as_xyz
  'x, y, z'

loop_
  _atom_site_label
  _atom_site_occupancy
  _atom_site_fract_x
  _atom_site_fract_y
  _atom_site_fract_z
  _atom_site_thermal_displace_type
  _atom_site_B_iso_or_equiv
  _atom_site_type_symbol
  Ag1      1.0000 0.24216  0.76228  0.10933  Biso   1.000  Ag
  Ag2      1.0000 0.25784  0.76228  0.60933  Biso   1.000  Ag
  Ag3      1.0000 0.75784  0.23772  0.89067  Biso   1.000  Ag
  Ag4      1.0000 0.74216  0.23772  0.39067  Biso   1.000  Ag
  Ag5      1.0000 0.56341  0.74812  0.59317  Biso   1.000  Ag
  Ag6      1.0000 0.93659  0.74812  0.09317  Biso   1.000  Ag
  Ag7      1.0000 0.43659  0.25188  0.40683  Biso   1.000  Ag
  Ag8      1.0000 0.06341  0.25188  0.90683  Biso   1.000  Ag
  Se1      1.0000 0.39735  0.26994  0.87275  Biso   1.000  Se
  Se2      1.0000 0.10265  0.26994  0.37275  Biso   1.000  Se
  Se3      1.0000 0.60265  0.73006  0.12725  Biso   1.000  Se
  Se4      1.0000 0.89735  0.73006  0.62725  Biso   1.000  Se
  O1       1.0000 0.38732  0.63332  0.87711  Biso   1.000  O 
  O2       1.0000 0.11268  0.63332  0.37711  Biso   1.000  O 
  O3       1.0000 0.61268  0.36668  0.12289  Biso   1.000  O 
  O4       1.0000 0.88732  0.36668  0.62289  Biso   1.000  O 
  O5       1.0000 0.52606  0.23983  0.71045  Biso   1.000  O 
  O6       1.0000 0.97394  0.23983  0.21045  Biso   1.000  O 
  O7       1.0000 0.47394  0.76017  0.28955  Biso   1.000  O 
  O8       1.0000 0.02606  0.76017  0.78955  Biso   1.000  O 
  O9       1.0000 0.25869  0.21511  0.72976  Biso   1.000  O 
  O10      1.0000 0.24131  0.21511  0.22976  Biso   1.000  O 
  O11      1.0000 0.74131  0.78489  0.27024  Biso   1.000  O 
  O12      1.0000 0.75869  0.78488  0.77024  Biso   1.000  O 
