data_image0
_cell_length_a       6.69513
_cell_length_b       6.69513
_cell_length_c       17.058
_cell_angle_alpha    90
_cell_angle_beta     90
_cell_angle_gamma    120

_symmetry_space_group_name_H-M    "P 1"
_symmetry_int_tables_number       1

loop_
  _symmetry_equiv_pos_as_xyz
  'x, y, z'

loop_
  _atom_site_label
  _atom_site_occupancy
  _atom_site_fract_x
  _atom_site_fract_y
  _atom_site_fract_z
  _atom_site_thermal_displace_type
  _atom_site_B_iso_or_equiv
  _atom_site_type_symbol
  Rb1      1.0000 0.56101  0.00000  0.16667  Biso   1.000  Rb
  Rb2      1.0000 0.00000  0.56101  0.83333  Biso   1.000  Rb
  Rb3      1.0000 0.43899  0.43899  0.50000  Biso   1.000  Rb
  Ag1      1.0000 0.89803  0.60222  0.06816  Biso   1.000  Ag
  Ag2      1.0000 0.39778  0.29581  0.73482  Biso   1.000  Ag
  Ag3      1.0000 0.70419  0.10197  0.40149  Biso   1.000  Ag
  Ag4      1.0000 0.60222  0.89803  0.93184  Biso   1.000  Ag
  Ag5      1.0000 0.29581  0.39778  0.26518  Biso   1.000  Ag
  Ag6      1.0000 0.10197  0.70419  0.59851  Biso   1.000  Ag
  Sb1      1.0000 0.28142  0.28142  0.00000  Biso   1.000  Sb
  Sb2      1.0000 0.71858  0.00000  0.66667  Biso   1.000  Sb
  Sb3      1.0000 1.00000  0.71858  0.33333  Biso   1.000  Sb
  S1       1.0000 0.49785  0.47528  0.11408  Biso   1.000  S 
  S2       1.0000 0.52472  0.02257  0.78075  Biso   1.000  S 
  S3       1.0000 0.97743  0.50215  0.44741  Biso   1.000  S 
  S4       1.0000 0.47528  0.49785  0.88592  Biso   1.000  S 
  S5       1.0000 0.02257  0.52472  0.21925  Biso   1.000  S 
  S6       1.0000 0.50215  0.97743  0.55259  Biso   1.000  S 
  S7       1.0000 0.23903  0.90531  0.99494  Biso   1.000  S 
  S8       1.0000 0.09469  0.33372  0.66160  Biso   1.000  S 
  S9       1.0000 0.66628  0.76097  0.32827  Biso   1.000  S 
  S10      1.0000 0.90531  0.23903  0.00506  Biso   1.000  S 
  S11      1.0000 0.33372  0.09469  0.33840  Biso   1.000  S 
  S12      1.0000 0.76097  0.66628  0.67173  Biso   1.000  S 
