data_image0
_cell_length_a       7.29918
_cell_length_b       4.23744
_cell_length_c       7.93374
_cell_angle_alpha    81.1647
_cell_angle_beta     90
_cell_angle_gamma    90

_symmetry_space_group_name_H-M    "P 1"
_symmetry_int_tables_number       1

loop_
  _symmetry_equiv_pos_as_xyz
  'x, y, z'

loop_
  _atom_site_label
  _atom_site_occupancy
  _atom_site_fract_x
  _atom_site_fract_y
  _atom_site_fract_z
  _atom_site_thermal_displace_type
  _atom_site_B_iso_or_equiv
  _atom_site_type_symbol
  Ag1      1.0000 0.99970  0.25039  0.24921  Biso   1.000  Ag
  Ag2      1.0000 0.49970  0.24961  0.25079  Biso   1.000  Ag
  Ag3      1.0000 0.00030  0.74961  0.75079  Biso   1.000  Ag
  Ag4      1.0000 0.50030  0.75039  0.74921  Biso   1.000  Ag
  Ag5      1.0000 0.24871  0.68037  0.44093  Biso   1.000  Ag
  Ag6      1.0000 0.74871  0.81963  0.05907  Biso   1.000  Ag
  Ag7      1.0000 0.75129  0.31963  0.55907  Biso   1.000  Ag
  Ag8      1.0000 0.25129  0.18037  0.94093  Biso   1.000  Ag
  S1       1.0000 0.25018  0.59456  0.13511  Biso   1.000  S 
  S2       1.0000 0.75018  0.90544  0.36489  Biso   1.000  S 
  S3       1.0000 0.74982  0.40544  0.86489  Biso   1.000  S 
  S4       1.0000 0.24982  0.09456  0.63511  Biso   1.000  S 
