data_image0
_cell_length_a       6.94857
_cell_length_b       4.28816
_cell_length_c       7.39375
_cell_angle_alpha    90
_cell_angle_beta     90
_cell_angle_gamma    90

_symmetry_space_group_name_H-M    "P 1"
_symmetry_int_tables_number       1

loop_
  _symmetry_equiv_pos_as_xyz
  'x, y, z'

loop_
  _atom_site_label
  _atom_site_occupancy
  _atom_site_fract_x
  _atom_site_fract_y
  _atom_site_fract_z
  _atom_site_thermal_displace_type
  _atom_site_B_iso_or_equiv
  _atom_site_type_symbol
  Ag1      1.0000 0.02396  0.23344  0.39535  Biso   1.000  Ag
  Ag2      1.0000 0.97604  0.73344  0.10465  Biso   1.000  Ag
  Ag3      1.0000 0.52396  0.26656  0.60465  Biso   1.000  Ag
  Ag4      1.0000 0.47604  0.76656  0.89535  Biso   1.000  Ag
  Ag5      1.0000 0.14079  0.39713  0.79299  Biso   1.000  Ag
  Ag6      1.0000 0.85921  0.89713  0.70701  Biso   1.000  Ag
  Ag7      1.0000 0.64079  0.10287  0.20701  Biso   1.000  Ag
  Ag8      1.0000 0.35921  0.60287  0.29299  Biso   1.000  Ag
  S1       1.0000 0.25253  0.12640  0.09388  Biso   1.000  S 
  S2       1.0000 0.74747  0.62640  0.40612  Biso   1.000  S 
  S3       1.0000 0.75253  0.37360  0.90612  Biso   1.000  S 
  S4       1.0000 0.24747  0.87360  0.59388  Biso   1.000  S 
