data_image0
_cell_length_a       6.60131
_cell_length_b       6.44258
_cell_length_c       10.1513
_cell_angle_alpha    50.949
_cell_angle_beta     90
_cell_angle_gamma    90

_symmetry_space_group_name_H-M    "P 1"
_symmetry_int_tables_number       1

loop_
  _symmetry_equiv_pos_as_xyz
  'x, y, z'

loop_
  _atom_site_label
  _atom_site_occupancy
  _atom_site_fract_x
  _atom_site_fract_y
  _atom_site_fract_z
  _atom_site_thermal_displace_type
  _atom_site_B_iso_or_equiv
  _atom_site_type_symbol
  Ag1      1.0000 0.32289  0.90318  0.82688  Biso   1.000  Ag
  Ag2      1.0000 0.67711  0.90318  0.32688  Biso   1.000  Ag
  Ag3      1.0000 0.15275  0.14685  0.07716  Biso   1.000  Ag
  Ag4      1.0000 0.84725  0.14685  0.57716  Biso   1.000  Ag
  Si1      1.0000 0.18412  0.64535  0.57459  Biso   1.000  Si
  Si2      1.0000 0.81588  0.64535  0.07459  Biso   1.000  Si
  Zn1      1.0000 0.31651  0.40176  0.32103  Biso   1.000  Zn
  Zn2      1.0000 0.68349  0.40176  0.82103  Biso   1.000  Zn
  S1       1.0000 0.12624  0.52859  0.08983  Biso   1.000  S 
  S2       1.0000 0.87376  0.52859  0.58983  Biso   1.000  S 
  S3       1.0000 0.31546  0.73500  0.35064  Biso   1.000  S 
  S4       1.0000 0.68454  0.73500  0.85064  Biso   1.000  S 
  S5       1.0000 0.19754  0.99437  0.55844  Biso   1.000  S 
  S6       1.0000 0.80246  0.99437  0.05844  Biso   1.000  S 
  S7       1.0000 0.34229  0.32157  0.79948  Biso   1.000  S 
  S8       1.0000 0.65771  0.32157  0.29948  Biso   1.000  S 
