data_image0
_cell_length_a       6.67234
_cell_length_b       6.66975
_cell_length_c       13.3958
_cell_angle_alpha    62.0402
_cell_angle_beta     90
_cell_angle_gamma    90

_symmetry_space_group_name_H-M    "P 1"
_symmetry_int_tables_number       1

loop_
  _symmetry_equiv_pos_as_xyz
  'x, y, z'

loop_
  _atom_site_label
  _atom_site_occupancy
  _atom_site_fract_x
  _atom_site_fract_y
  _atom_site_fract_z
  _atom_site_thermal_displace_type
  _atom_site_B_iso_or_equiv
  _atom_site_type_symbol
  Ag1      1.0000 0.97980  0.24163  0.25006  Biso   1.000  Ag
  Ag2      1.0000 0.47980  0.75837  0.24994  Biso   1.000  Ag
  Ag3      1.0000 0.02020  0.75837  0.74994  Biso   1.000  Ag
  Ag4      1.0000 0.52020  0.24163  0.75006  Biso   1.000  Ag
  Ag5      1.0000 0.11232  0.48891  0.38947  Biso   1.000  Ag
  Ag6      1.0000 0.61232  0.51109  0.11053  Biso   1.000  Ag
  Ag7      1.0000 0.88768  0.51109  0.61053  Biso   1.000  Ag
  Ag8      1.0000 0.38768  0.48891  0.88947  Biso   1.000  Ag
  Si1      1.0000 0.34537  0.84372  0.50089  Biso   1.000  Si
  Si2      1.0000 0.84537  0.15628  0.99911  Biso   1.000  Si
  Si3      1.0000 0.65463  0.15628  0.49911  Biso   1.000  Si
  Si4      1.0000 0.15463  0.84372  0.00089  Biso   1.000  Si
  S1       1.0000 0.20650  0.88560  0.35091  Biso   1.000  S 
  S2       1.0000 0.70650  0.11440  0.14909  Biso   1.000  S 
  S3       1.0000 0.79350  0.11440  0.64909  Biso   1.000  S 
  S4       1.0000 0.29350  0.88560  0.85091  Biso   1.000  S 
  S5       1.0000 0.67187  0.84590  0.48164  Biso   1.000  S 
  S6       1.0000 0.17187  0.15410  0.01836  Biso   1.000  S 
  S7       1.0000 0.32813  0.15410  0.51836  Biso   1.000  S 
  S8       1.0000 0.82813  0.84590  0.98164  Biso   1.000  S 
  S9       1.0000 0.24733  0.56205  0.65182  Biso   1.000  S 
  S10      1.0000 0.74733  0.43795  0.84818  Biso   1.000  S 
  S11      1.0000 0.75267  0.43795  0.34818  Biso   1.000  S 
  S12      1.0000 0.25267  0.56205  0.15182  Biso   1.000  S 
