data_image0
_cell_length_a       5.74738
_cell_length_b       4.27677
_cell_length_c       9.0102
_cell_angle_alpha    38.5436
_cell_angle_beta     90
_cell_angle_gamma    90

_symmetry_space_group_name_H-M    "P 1"
_symmetry_int_tables_number       1

loop_
  _symmetry_equiv_pos_as_xyz
  'x, y, z'

loop_
  _atom_site_label
  _atom_site_occupancy
  _atom_site_fract_x
  _atom_site_fract_y
  _atom_site_fract_z
  _atom_site_thermal_displace_type
  _atom_site_B_iso_or_equiv
  _atom_site_type_symbol
  Ag1      1.0000 0.04054  0.94564  0.52182  Biso   1.000  Ag
  Ag2      1.0000 0.54054  0.05436  0.47818  Biso   1.000  Ag
  Ag3      1.0000 0.43648  0.10540  0.99237  Biso   1.000  Ag
  Ag4      1.0000 0.93648  0.89460  0.00763  Biso   1.000  Ag
  S1       1.0000 0.27297  0.30505  0.19468  Biso   1.000  S 
  S2       1.0000 0.77297  0.69495  0.80532  Biso   1.000  S 
