data_image0
_cell_length_a       4.37724
_cell_length_b       7.10365
_cell_length_c       7.72711
_cell_angle_alpha    90
_cell_angle_beta     90
_cell_angle_gamma    90

_symmetry_space_group_name_H-M    "P 1"
_symmetry_int_tables_number       1

loop_
  _symmetry_equiv_pos_as_xyz
  'x, y, z'

loop_
  _atom_site_label
  _atom_site_occupancy
  _atom_site_fract_x
  _atom_site_fract_y
  _atom_site_fract_z
  _atom_site_thermal_displace_type
  _atom_site_B_iso_or_equiv
  _atom_site_type_symbol
  Ag1      1.0000 0.83423  0.11488  0.44893  Biso   1.000  Ag
  Ag2      1.0000 0.16577  0.61488  0.05107  Biso   1.000  Ag
  Ag3      1.0000 0.33423  0.38512  0.55107  Biso   1.000  Ag
  Ag4      1.0000 0.66577  0.88512  0.94894  Biso   1.000  Ag
  Ag5      1.0000 0.47589  0.77209  0.36944  Biso   1.000  Ag
  Ag6      1.0000 0.52411  0.27209  0.13056  Biso   1.000  Ag
  Ag7      1.0000 0.97589  0.72791  0.63056  Biso   1.000  Ag
  Ag8      1.0000 0.02411  0.22791  0.86944  Biso   1.000  Ag
  Se1      1.0000 0.12466  0.99358  0.15848  Biso   1.000  Se
  Se2      1.0000 0.87534  0.49358  0.34152  Biso   1.000  Se
  Se3      1.0000 0.62466  0.50642  0.84152  Biso   1.000  Se
  Se4      1.0000 0.37534  0.00642  0.65848  Biso   1.000  Se
