data_image0
_cell_length_a       7.19993
_cell_length_b       7.19993
_cell_length_c       7.19993
_cell_angle_alpha    134.686
_cell_angle_beta     134.686
_cell_angle_gamma    66.0185

_symmetry_space_group_name_H-M    "P 1"
_symmetry_int_tables_number       1

loop_
  _symmetry_equiv_pos_as_xyz
  'x, y, z'

loop_
  _atom_site_label
  _atom_site_occupancy
  _atom_site_fract_x
  _atom_site_fract_y
  _atom_site_fract_z
  _atom_site_thermal_displace_type
  _atom_site_B_iso_or_equiv
  _atom_site_type_symbol
  Zn1      1.0000 0.00000  0.00000  0.00000  Biso   1.000  Zn
  Sn1      1.0000 0.50000  0.50000  0.00000  Biso   1.000  Sn
  Ag1      1.0000 0.25000  0.75000  0.50000  Biso   1.000  Ag
  Ag2      1.0000 0.75000  0.25000  0.50000  Biso   1.000  Ag
  S1       1.0000 0.12715  0.12715  0.48486  Biso   1.000  S 
  S2       1.0000 0.64230  0.64230  0.51514  Biso   1.000  S 
  S3       1.0000 0.35770  0.87285  0.00000  Biso   1.000  S 
  S4       1.0000 0.87285  0.35770  0.00000  Biso   1.000  S 
