data_image0
_cell_length_a       7.32322
_cell_length_b       4.23634
_cell_length_c       7.9429
_cell_angle_alpha    82.0344
_cell_angle_beta     90
_cell_angle_gamma    90

_symmetry_space_group_name_H-M    "P 1"
_symmetry_int_tables_number       1

loop_
  _symmetry_equiv_pos_as_xyz
  'x, y, z'

loop_
  _atom_site_label
  _atom_site_occupancy
  _atom_site_fract_x
  _atom_site_fract_y
  _atom_site_fract_z
  _atom_site_thermal_displace_type
  _atom_site_B_iso_or_equiv
  _atom_site_type_symbol
  Ag1      1.0000 0.00044  0.25066  0.25194  Biso   1.000  Ag
  Ag2      1.0000 0.50044  0.24934  0.24806  Biso   1.000  Ag
  Ag3      1.0000 0.99956  0.74934  0.74806  Biso   1.000  Ag
  Ag4      1.0000 0.49956  0.75066  0.75194  Biso   1.000  Ag
  Ag5      1.0000 0.25391  0.67006  0.44320  Biso   1.000  Ag
  Ag6      1.0000 0.75391  0.82994  0.05680  Biso   1.000  Ag
  Ag7      1.0000 0.74609  0.32994  0.55680  Biso   1.000  Ag
  Ag8      1.0000 0.24609  0.17006  0.94320  Biso   1.000  Ag
  S1       1.0000 0.24990  0.58873  0.13694  Biso   1.000  S 
  S2       1.0000 0.74990  0.91127  0.36306  Biso   1.000  S 
  S3       1.0000 0.75010  0.41127  0.86306  Biso   1.000  S 
  S4       1.0000 0.25010  0.08873  0.63694  Biso   1.000  S 
