data_image0
_cell_length_a       7.73716
_cell_length_b       4.31302
_cell_length_c       8.62923
_cell_angle_alpha    65.3837
_cell_angle_beta     90
_cell_angle_gamma    90

_symmetry_space_group_name_H-M    "P 1"
_symmetry_int_tables_number       1

loop_
  _symmetry_equiv_pos_as_xyz
  'x, y, z'

loop_
  _atom_site_label
  _atom_site_occupancy
  _atom_site_fract_x
  _atom_site_fract_y
  _atom_site_fract_z
  _atom_site_thermal_displace_type
  _atom_site_B_iso_or_equiv
  _atom_site_type_symbol
  Ag1      1.0000 0.50172  0.50151  0.25219  Biso   1.000  Ag
  Ag2      1.0000 0.99828  0.50151  0.75219  Biso   1.000  Ag
  Ag3      1.0000 0.49828  0.49849  0.74781  Biso   1.000  Ag
  Ag4      1.0000 0.00172  0.49849  0.24781  Biso   1.000  Ag
  Ag5      1.0000 0.25196  0.06628  0.03285  Biso   1.000  Ag
  Ag6      1.0000 0.24804  0.06628  0.53285  Biso   1.000  Ag
  Ag7      1.0000 0.74804  0.93372  0.96715  Biso   1.000  Ag
  Ag8      1.0000 0.75196  0.93372  0.46715  Biso   1.000  Ag
  S1       1.0000 0.24982  0.69812  0.34868  Biso   1.000  S 
  S2       1.0000 0.25018  0.69812  0.84868  Biso   1.000  S 
  S3       1.0000 0.75018  0.30188  0.65132  Biso   1.000  S 
  S4       1.0000 0.74982  0.30188  0.15132  Biso   1.000  S 
