data_image0
_cell_length_a       8.68228
_cell_length_b       8.68228
_cell_length_c       8.68228
_cell_angle_alpha    109.471
_cell_angle_beta     109.471
_cell_angle_gamma    109.471

_symmetry_space_group_name_H-M    "P 1"
_symmetry_int_tables_number       1

loop_
  _symmetry_equiv_pos_as_xyz
  'x, y, z'

loop_
  _atom_site_label
  _atom_site_occupancy
  _atom_site_fract_x
  _atom_site_fract_y
  _atom_site_fract_z
  _atom_site_thermal_displace_type
  _atom_site_B_iso_or_equiv
  _atom_site_type_symbol
  Ag1      1.0000 0.62197  0.75000  0.37197  Biso   1.000  Ag
  Ag2      1.0000 0.87803  0.25000  0.12803  Biso   1.000  Ag
  Ag3      1.0000 0.12803  0.75000  0.87803  Biso   1.000  Ag
  Ag4      1.0000 0.37197  0.25000  0.62197  Biso   1.000  Ag
  Ag5      1.0000 0.37197  0.62197  0.75000  Biso   1.000  Ag
  Ag6      1.0000 0.12803  0.87803  0.25000  Biso   1.000  Ag
  Ag7      1.0000 0.87803  0.12803  0.75000  Biso   1.000  Ag
  Ag8      1.0000 0.62197  0.37197  0.25000  Biso   1.000  Ag
  Ag9      1.0000 0.75000  0.37197  0.62197  Biso   1.000  Ag
  Ag10     1.0000 0.25000  0.12803  0.87803  Biso   1.000  Ag
  Ag11     1.0000 0.75000  0.87803  0.12803  Biso   1.000  Ag
  Ag12     1.0000 0.25000  0.62197  0.37197  Biso   1.000  Ag
  Au1      1.0000 0.50000  0.00000  0.25000  Biso   1.000  Au
  Au2      1.0000 0.25000  0.50000  0.00000  Biso   1.000  Au
  Au3      1.0000 0.00000  0.25000  0.50000  Biso   1.000  Au
  Au4      1.0000 0.25000  0.25000  0.25000  Biso   1.000  Au
  Se1      1.0000 0.50000  0.00000  0.53808  Biso   1.000  Se
  Se2      1.0000 0.53808  0.50000  0.00000  Biso   1.000  Se
  Se3      1.0000 0.00000  0.53808  0.50000  Biso   1.000  Se
  Se4      1.0000 0.96192  0.96192  0.96192  Biso   1.000  Se
  Se5      1.0000 0.96192  0.50000  0.00000  Biso   1.000  Se
  Se6      1.0000 0.50000  0.00000  0.96192  Biso   1.000  Se
  Se7      1.0000 0.00000  0.96192  0.50000  Biso   1.000  Se
  Se8      1.0000 0.53808  0.53808  0.53808  Biso   1.000  Se
