data_image0
_cell_length_a       6.96438
_cell_length_b       6.96438
_cell_length_c       6.96438
_cell_angle_alpha    100.918
_cell_angle_beta     100.918
_cell_angle_gamma    100.918

_symmetry_space_group_name_H-M    "P 1"
_symmetry_int_tables_number       1

loop_
  _symmetry_equiv_pos_as_xyz
  'x, y, z'

loop_
  _atom_site_label
  _atom_site_occupancy
  _atom_site_fract_x
  _atom_site_fract_y
  _atom_site_fract_z
  _atom_site_thermal_displace_type
  _atom_site_B_iso_or_equiv
  _atom_site_type_symbol
  As1      1.0000 0.50735  0.50735  0.50735  Biso   1.000  As
  As2      1.0000 0.00735  0.00735  0.00735  Biso   1.000  As
  Ag1      1.0000 0.76815  0.98004  0.43068  Biso   1.000  Ag
  Ag2      1.0000 0.98004  0.43068  0.76815  Biso   1.000  Ag
  Ag3      1.0000 0.43068  0.76815  0.98004  Biso   1.000  Ag
  Ag4      1.0000 0.26815  0.93068  0.48004  Biso   1.000  Ag
  Ag5      1.0000 0.93068  0.48004  0.26815  Biso   1.000  Ag
  Ag6      1.0000 0.48004  0.26815  0.93068  Biso   1.000  Ag
  S1       1.0000 0.77918  0.10936  0.78523  Biso   1.000  S 
  S2       1.0000 0.10936  0.78523  0.77918  Biso   1.000  S 
  S3       1.0000 0.78523  0.77918  0.10936  Biso   1.000  S 
  S4       1.0000 0.27918  0.28523  0.60936  Biso   1.000  S 
  S5       1.0000 0.28523  0.60936  0.27918  Biso   1.000  S 
  S6       1.0000 0.60936  0.27918  0.28523  Biso   1.000  S 
