data_image0
_cell_length_a       6.13894
_cell_length_b       6.13894
_cell_length_c       6.13894
_cell_angle_alpha    90
_cell_angle_beta     90
_cell_angle_gamma    90

_symmetry_space_group_name_H-M    "P 1"
_symmetry_int_tables_number       1

loop_
  _symmetry_equiv_pos_as_xyz
  'x, y, z'

loop_
  _atom_site_label
  _atom_site_occupancy
  _atom_site_fract_x
  _atom_site_fract_y
  _atom_site_fract_z
  _atom_site_thermal_displace_type
  _atom_site_B_iso_or_equiv
  _atom_site_type_symbol
  As1      1.0000 0.00000  0.00000  0.00000  Biso   1.000  As
  As2      1.0000 0.50000  0.50000  0.50000  Biso   1.000  As
  Ag1      1.0000 0.50000  0.25000  0.00000  Biso   1.000  Ag
  Ag2      1.0000 0.50000  0.75000  0.00000  Biso   1.000  Ag
  Ag3      1.0000 0.25000  0.00000  0.50000  Biso   1.000  Ag
  Ag4      1.0000 0.00000  0.50000  0.25000  Biso   1.000  Ag
  Ag5      1.0000 0.75000  0.00000  0.50000  Biso   1.000  Ag
  Ag6      1.0000 0.00000  0.50000  0.75000  Biso   1.000  Ag
  O1       1.0000 0.33705  0.33705  0.33705  Biso   1.000  O 
  O2       1.0000 0.16295  0.83705  0.16295  Biso   1.000  O 
  O3       1.0000 0.83705  0.16295  0.16295  Biso   1.000  O 
  O4       1.0000 0.16295  0.16295  0.83705  Biso   1.000  O 
  O5       1.0000 0.83705  0.83705  0.83705  Biso   1.000  O 
  O6       1.0000 0.66295  0.66295  0.33705  Biso   1.000  O 
  O7       1.0000 0.33705  0.66295  0.66295  Biso   1.000  O 
  O8       1.0000 0.66295  0.33705  0.66295  Biso   1.000  O 
