data_image0
_cell_length_a       6.65825
_cell_length_b       7.03092
_cell_length_c       7.87475
_cell_angle_alpha    90
_cell_angle_beta     90
_cell_angle_gamma    90

_symmetry_space_group_name_H-M    "P 1"
_symmetry_int_tables_number       1

loop_
  _symmetry_equiv_pos_as_xyz
  'x, y, z'

loop_
  _atom_site_label
  _atom_site_occupancy
  _atom_site_fract_x
  _atom_site_fract_y
  _atom_site_fract_z
  _atom_site_thermal_displace_type
  _atom_site_B_iso_or_equiv
  _atom_site_type_symbol
  As1      1.0000 0.49938  0.17987  0.50000  Biso   1.000  As
  As2      1.0000 0.99938  0.82013  0.00000  Biso   1.000  As
  Ag1      1.0000 0.01980  0.84390  0.50000  Biso   1.000  Ag
  Ag2      1.0000 0.51980  0.15610  0.00000  Biso   1.000  Ag
  Ag3      1.0000 0.48555  0.68504  0.73657  Biso   1.000  Ag
  Ag4      1.0000 0.48555  0.68504  0.26343  Biso   1.000  Ag
  Ag5      1.0000 0.98555  0.31496  0.76343  Biso   1.000  Ag
  Ag6      1.0000 0.98555  0.31496  0.23657  Biso   1.000  Ag
  S1       1.0000 0.16506  0.18133  0.50000  Biso   1.000  S 
  S2       1.0000 0.66506  0.81867  0.00000  Biso   1.000  S 
  S3       1.0000 0.63022  0.88816  0.50000  Biso   1.000  S 
  S4       1.0000 0.13022  0.11184  0.00000  Biso   1.000  S 
  S5       1.0000 0.10827  0.66225  0.77105  Biso   1.000  S 
  S6       1.0000 0.10827  0.66225  0.22895  Biso   1.000  S 
  S7       1.0000 0.60827  0.33775  0.72895  Biso   1.000  S 
  S8       1.0000 0.60827  0.33775  0.27105  Biso   1.000  S 
