data_image0
_cell_length_a       7.91291
_cell_length_b       7.91291
_cell_length_c       7.91291
_cell_angle_alpha    44.9606
_cell_angle_beta     44.9606
_cell_angle_gamma    44.9606

_symmetry_space_group_name_H-M    "P 1"
_symmetry_int_tables_number       1

loop_
  _symmetry_equiv_pos_as_xyz
  'x, y, z'

loop_
  _atom_site_label
  _atom_site_occupancy
  _atom_site_fract_x
  _atom_site_fract_y
  _atom_site_fract_z
  _atom_site_thermal_displace_type
  _atom_site_B_iso_or_equiv
  _atom_site_type_symbol
  K1       1.0000 0.90901  0.90901  0.90901  Biso   1.000  K 
  K2       1.0000 0.09099  0.09099  0.09099  Biso   1.000  K 
  K3       1.0000 0.50000  0.50000  0.50000  Biso   1.000  K 
  Ag1      1.0000 0.50000  0.50000  0.00000  Biso   1.000  Ag
  Ag2      1.0000 0.50000  0.00000  0.50000  Biso   1.000  Ag
  Ag3      1.0000 0.00000  0.50000  0.50000  Biso   1.000  Ag
  As1      1.0000 0.24500  0.24500  0.24500  Biso   1.000  As
  As2      1.0000 0.75500  0.75500  0.75500  Biso   1.000  As
