data_image0
_cell_length_a       9.02557
_cell_length_b       9.02557
_cell_length_c       9.02557
_cell_angle_alpha    109.471
_cell_angle_beta     109.471
_cell_angle_gamma    109.471

_symmetry_space_group_name_H-M    "P 1"
_symmetry_int_tables_number       1

loop_
  _symmetry_equiv_pos_as_xyz
  'x, y, z'

loop_
  _atom_site_label
  _atom_site_occupancy
  _atom_site_fract_x
  _atom_site_fract_y
  _atom_site_fract_z
  _atom_site_thermal_displace_type
  _atom_site_B_iso_or_equiv
  _atom_site_type_symbol
  Ag1      1.0000 0.61042  0.75000  0.36042  Biso   1.000  Ag
  Ag2      1.0000 0.88958  0.25000  0.13958  Biso   1.000  Ag
  Ag3      1.0000 0.13958  0.75000  0.88958  Biso   1.000  Ag
  Ag4      1.0000 0.36042  0.25000  0.61042  Biso   1.000  Ag
  Ag5      1.0000 0.36042  0.61042  0.75000  Biso   1.000  Ag
  Ag6      1.0000 0.13958  0.88958  0.25000  Biso   1.000  Ag
  Ag7      1.0000 0.88958  0.13958  0.75000  Biso   1.000  Ag
  Ag8      1.0000 0.61042  0.36042  0.25000  Biso   1.000  Ag
  Ag9      1.0000 0.75000  0.36042  0.61042  Biso   1.000  Ag
  Ag10     1.0000 0.25000  0.13958  0.88958  Biso   1.000  Ag
  Ag11     1.0000 0.75000  0.88958  0.13958  Biso   1.000  Ag
  Ag12     1.0000 0.25000  0.61042  0.36042  Biso   1.000  Ag
  Au1      1.0000 0.50000  0.00000  0.25000  Biso   1.000  Au
  Au2      1.0000 0.25000  0.50000  0.00000  Biso   1.000  Au
  Au3      1.0000 0.00000  0.25000  0.50000  Biso   1.000  Au
  Au4      1.0000 0.25000  0.25000  0.25000  Biso   1.000  Au
  Te1      1.0000 0.50000  0.00000  0.54479  Biso   1.000  Te
  Te2      1.0000 0.54479  0.50000  0.00000  Biso   1.000  Te
  Te3      1.0000 0.00000  0.54479  0.50000  Biso   1.000  Te
  Te4      1.0000 0.95521  0.95521  0.95521  Biso   1.000  Te
  Te5      1.0000 0.95521  0.50000  0.00000  Biso   1.000  Te
  Te6      1.0000 0.50000  0.00000  0.95521  Biso   1.000  Te
  Te7      1.0000 0.00000  0.95521  0.50000  Biso   1.000  Te
  Te8      1.0000 0.54479  0.54479  0.54479  Biso   1.000  Te
