data_image0
_cell_length_a       7.22534
_cell_length_b       7.22534
_cell_length_c       7.22534
_cell_angle_alpha    104.576
_cell_angle_beta     104.576
_cell_angle_gamma    104.576

_symmetry_space_group_name_H-M    "P 1"
_symmetry_int_tables_number       1

loop_
  _symmetry_equiv_pos_as_xyz
  'x, y, z'

loop_
  _atom_site_label
  _atom_site_occupancy
  _atom_site_fract_x
  _atom_site_fract_y
  _atom_site_fract_z
  _atom_site_thermal_displace_type
  _atom_site_B_iso_or_equiv
  _atom_site_type_symbol
  Ag1      1.0000 0.75680  0.97312  0.41413  Biso   1.000  Ag
  Ag2      1.0000 0.97312  0.41413  0.75680  Biso   1.000  Ag
  Ag3      1.0000 0.41413  0.75680  0.97312  Biso   1.000  Ag
  Ag4      1.0000 0.25680  0.91413  0.47312  Biso   1.000  Ag
  Ag5      1.0000 0.91413  0.47312  0.25680  Biso   1.000  Ag
  Ag6      1.0000 0.47312  0.25680  0.91413  Biso   1.000  Ag
  As1      1.0000 0.51344  0.51344  0.51344  Biso   1.000  As
  As2      1.0000 0.01344  0.01344  0.01344  Biso   1.000  As
  Se1      1.0000 0.75226  0.08881  0.78165  Biso   1.000  Se
  Se2      1.0000 0.08881  0.78165  0.75225  Biso   1.000  Se
  Se3      1.0000 0.78165  0.75226  0.08881  Biso   1.000  Se
  Se4      1.0000 0.25226  0.28165  0.58881  Biso   1.000  Se
  Se5      1.0000 0.28165  0.58881  0.25226  Biso   1.000  Se
  Se6      1.0000 0.58881  0.25226  0.28165  Biso   1.000  Se
