data_image0
_cell_length_a       6.84453
_cell_length_b       6.84453
_cell_length_c       17.2745
_cell_angle_alpha    72.3183
_cell_angle_beta     72.3183
_cell_angle_gamma    54.8039

_symmetry_space_group_name_H-M    "P 1"
_symmetry_int_tables_number       1

loop_
  _symmetry_equiv_pos_as_xyz
  'x, y, z'

loop_
  _atom_site_label
  _atom_site_occupancy
  _atom_site_fract_x
  _atom_site_fract_y
  _atom_site_fract_z
  _atom_site_thermal_displace_type
  _atom_site_B_iso_or_equiv
  _atom_site_type_symbol
  Ag1      1.0000 0.09820  0.17334  0.28727  Biso   1.000  Ag
  Ag2      1.0000 0.82666  0.90180  0.21273  Biso   1.000  Ag
  Ag3      1.0000 0.90180  0.82666  0.71273  Biso   1.000  Ag
  Ag4      1.0000 0.17334  0.09820  0.78727  Biso   1.000  Ag
  Ag5      1.0000 0.13622  0.99429  0.06233  Biso   1.000  Ag
  Ag6      1.0000 0.00571  0.86378  0.43767  Biso   1.000  Ag
  Ag7      1.0000 0.86378  0.00571  0.93767  Biso   1.000  Ag
  Ag8      1.0000 0.99429  0.13622  0.56233  Biso   1.000  Ag
  Ag9      1.0000 0.31551  0.40178  0.36967  Biso   1.000  Ag
  Ag10     1.0000 0.59822  0.68449  0.13033  Biso   1.000  Ag
  Ag11     1.0000 0.68449  0.59822  0.63033  Biso   1.000  Ag
  Ag12     1.0000 0.40178  0.31551  0.86967  Biso   1.000  Ag
  As1      1.0000 0.29207  0.41617  0.07276  Biso   1.000  As
  As2      1.0000 0.58383  0.70793  0.42724  Biso   1.000  As
  As3      1.0000 0.70793  0.58383  0.92724  Biso   1.000  As
  As4      1.0000 0.41617  0.29207  0.57276  Biso   1.000  As
  S1       1.0000 0.96442  0.34527  0.41622  Biso   1.000  S 
  S2       1.0000 0.65473  0.03558  0.08378  Biso   1.000  S 
  S3       1.0000 0.03558  0.65473  0.58378  Biso   1.000  S 
  S4       1.0000 0.34527  0.96442  0.91622  Biso   1.000  S 
  S5       1.0000 0.28683  0.56945  0.17377  Biso   1.000  S 
  S6       1.0000 0.43055  0.71317  0.32623  Biso   1.000  S 
  S7       1.0000 0.71317  0.43055  0.82623  Biso   1.000  S 
  S8       1.0000 0.56945  0.28683  0.67377  Biso   1.000  S 
  S9       1.0000 0.01940  0.30611  0.14414  Biso   1.000  S 
  S10      1.0000 0.69389  0.98060  0.35586  Biso   1.000  S 
  S11      1.0000 0.98060  0.69389  0.85586  Biso   1.000  S 
  S12      1.0000 0.30611  0.01940  0.64414  Biso   1.000  S 
