data_image0
_cell_length_a       7.25368
_cell_length_b       7.25368
_cell_length_c       7.25368
_cell_angle_alpha    86.7879
_cell_angle_beta     86.7879
_cell_angle_gamma    86.7879

_symmetry_space_group_name_H-M    "P 1"
_symmetry_int_tables_number       1

loop_
  _symmetry_equiv_pos_as_xyz
  'x, y, z'

loop_
  _atom_site_label
  _atom_site_occupancy
  _atom_site_fract_x
  _atom_site_fract_y
  _atom_site_fract_z
  _atom_site_thermal_displace_type
  _atom_site_B_iso_or_equiv
  _atom_site_type_symbol
  Ag1      1.0000 0.87090  0.88429  0.37452  Biso   1.000  Ag
  Ag2      1.0000 0.61571  0.62910  0.12548  Biso   1.000  Ag
  Ag3      1.0000 0.62910  0.12548  0.61571  Biso   1.000  Ag
  Ag4      1.0000 0.12548  0.61571  0.62910  Biso   1.000  Ag
  Ag5      1.0000 0.11571  0.62548  0.12910  Biso   1.000  Ag
  Ag6      1.0000 0.62548  0.12910  0.11571  Biso   1.000  Ag
  Ag7      1.0000 0.12910  0.11571  0.62548  Biso   1.000  Ag
  Ag8      1.0000 0.38429  0.37090  0.87452  Biso   1.000  Ag
  Ag9      1.0000 0.37090  0.87452  0.38429  Biso   1.000  Ag
  Ag10     1.0000 0.87452  0.38429  0.37090  Biso   1.000  Ag
  Ag11     1.0000 0.88429  0.37452  0.87090  Biso   1.000  Ag
  Ag12     1.0000 0.37452  0.87090  0.88429  Biso   1.000  Ag
  B1       1.0000 0.37483  0.37483  0.37483  Biso   1.000  B 
  B2       1.0000 0.12517  0.12517  0.12517  Biso   1.000  B 
  B3       1.0000 0.62517  0.62517  0.62517  Biso   1.000  B 
  B4       1.0000 0.87483  0.87483  0.87483  Biso   1.000  B 
  O1       1.0000 0.36687  0.51809  0.24115  Biso   1.000  O 
  O2       1.0000 0.98191  0.13313  0.25885  Biso   1.000  O 
  O3       1.0000 0.13313  0.25885  0.98191  Biso   1.000  O 
  O4       1.0000 0.25885  0.98191  0.13313  Biso   1.000  O 
  O5       1.0000 0.48191  0.75885  0.63313  Biso   1.000  O 
  O6       1.0000 0.75885  0.63313  0.48191  Biso   1.000  O 
  O7       1.0000 0.63313  0.48191  0.75885  Biso   1.000  O 
  O8       1.0000 0.01809  0.86687  0.74115  Biso   1.000  O 
  O9       1.0000 0.86687  0.74115  0.01809  Biso   1.000  O 
  O10      1.0000 0.74115  0.01809  0.86687  Biso   1.000  O 
  O11      1.0000 0.51809  0.24115  0.36687  Biso   1.000  O 
  O12      1.0000 0.24115  0.36687  0.51809  Biso   1.000  O 
