data_image0
_cell_length_a       6.74022
_cell_length_b       6.74022
_cell_length_c       10.0363
_cell_angle_alpha    90
_cell_angle_beta     90
_cell_angle_gamma    91.1331

_symmetry_space_group_name_H-M    "P 1"
_symmetry_int_tables_number       1

loop_
  _symmetry_equiv_pos_as_xyz
  'x, y, z'

loop_
  _atom_site_label
  _atom_site_occupancy
  _atom_site_fract_x
  _atom_site_fract_y
  _atom_site_fract_z
  _atom_site_thermal_displace_type
  _atom_site_B_iso_or_equiv
  _atom_site_type_symbol
  Ag1      1.0000 0.46106  0.98538  0.25000  Biso   1.000  Ag
  Ag2      1.0000 0.98538  0.46106  0.75000  Biso   1.000  Ag
  Ag3      1.0000 0.53894  0.01462  0.75000  Biso   1.000  Ag
  Ag4      1.0000 0.01462  0.53894  0.25000  Biso   1.000  Ag
  Ag5      1.0000 0.78595  0.21405  0.41224  Biso   1.000  Ag
  Ag6      1.0000 0.21405  0.78595  0.58776  Biso   1.000  Ag
  Ag7      1.0000 0.78595  0.21405  0.08776  Biso   1.000  Ag
  Ag8      1.0000 0.21405  0.78595  0.91224  Biso   1.000  Ag
  Ag9      1.0000 0.69000  0.69000  0.50000  Biso   1.000  Ag
  Ag10     1.0000 0.69000  0.69000  0.00000  Biso   1.000  Ag
  Ag11     1.0000 0.31000  0.31000  0.50000  Biso   1.000  Ag
  Ag12     1.0000 0.31000  0.31000  0.00000  Biso   1.000  Ag
  S1       1.0000 0.50000  0.00000  0.50000  Biso   1.000  S 
  S2       1.0000 0.00000  0.50000  0.50000  Biso   1.000  S 
  S3       1.0000 0.50000  0.00000  0.00000  Biso   1.000  S 
  S4       1.0000 0.00000  0.50000  0.00000  Biso   1.000  S 
  Br1      1.0000 0.02154  0.97846  0.25000  Biso   1.000  Br
  Br2      1.0000 0.97846  0.02154  0.75000  Biso   1.000  Br
  Br3      1.0000 0.49130  0.50870  0.25000  Biso   1.000  Br
  Br4      1.0000 0.50870  0.49130  0.75000  Biso   1.000  Br
