data_image0
_cell_length_a       5.40753
_cell_length_b       5.40753
_cell_length_c       18.9448
_cell_angle_alpha    90
_cell_angle_beta     90
_cell_angle_gamma    120

_symmetry_space_group_name_H-M    "P 1"
_symmetry_int_tables_number       1

loop_
  _symmetry_equiv_pos_as_xyz
  'x, y, z'

loop_
  _atom_site_label
  _atom_site_occupancy
  _atom_site_fract_x
  _atom_site_fract_y
  _atom_site_fract_z
  _atom_site_thermal_displace_type
  _atom_site_B_iso_or_equiv
  _atom_site_type_symbol
  Sb1      1.0000 0.77415  0.22585  0.33333  Biso   1.000  Sb
  Sb2      1.0000 0.77415  0.54830  0.66667  Biso   1.000  Sb
  Sb3      1.0000 0.45170  0.22585  0.00000  Biso   1.000  Sb
  Co1      1.0000 0.44208  0.55792  0.33333  Biso   1.000  Co
  Co2      1.0000 0.44208  0.88416  0.66667  Biso   1.000  Co
  Co3      1.0000 0.11584  0.55792  0.00000  Biso   1.000  Co
  Co4      1.0000 0.10604  0.89396  0.33333  Biso   1.000  Co
  Co5      1.0000 0.10604  0.21208  0.66667  Biso   1.000  Co
  Co6      1.0000 0.78792  0.89396  0.00000  Biso   1.000  Co
  Ag1      1.0000 0.77310  0.88655  0.50000  Biso   1.000  Ag
  Ag2      1.0000 0.11345  0.88655  0.83333  Biso   1.000  Ag
  Ag3      1.0000 0.11345  0.22690  0.16667  Biso   1.000  Ag
  Ag4      1.0000 0.44792  0.22396  0.50000  Biso   1.000  Ag
  Ag5      1.0000 0.77604  0.22396  0.83333  Biso   1.000  Ag
  Ag6      1.0000 0.77604  0.55208  0.16667  Biso   1.000  Ag
  Ag7      1.0000 0.09718  0.54859  0.50000  Biso   1.000  Ag
  Ag8      1.0000 0.45141  0.54859  0.83333  Biso   1.000  Ag
  Ag9      1.0000 0.45141  0.90282  0.16667  Biso   1.000  Ag
  O1       1.0000 0.09590  0.22874  0.27777  Biso   1.000  O 
  O2       1.0000 0.77126  0.86717  0.61110  Biso   1.000  O 
  O3       1.0000 0.13283  0.90410  0.94443  Biso   1.000  O 
  O4       1.0000 0.09590  0.86717  0.72223  Biso   1.000  O 
  O5       1.0000 0.77126  0.90410  0.38890  Biso   1.000  O 
  O6       1.0000 0.13283  0.22874  0.05557  Biso   1.000  O 
  O7       1.0000 0.77768  0.54855  0.27794  Biso   1.000  O 
  O8       1.0000 0.45145  0.22913  0.61127  Biso   1.000  O 
  O9       1.0000 0.77087  0.22232  0.94461  Biso   1.000  O 
  O10      1.0000 0.77768  0.22913  0.72206  Biso   1.000  O 
  O11      1.0000 0.45145  0.22232  0.38873  Biso   1.000  O 
  O12      1.0000 0.77087  0.54855  0.05539  Biso   1.000  O 
  O13      1.0000 0.45529  0.90635  0.27765  Biso   1.000  O 
  O14      1.0000 0.09365  0.54894  0.61098  Biso   1.000  O 
  O15      1.0000 0.45106  0.54471  0.94432  Biso   1.000  O 
  O16      1.0000 0.45529  0.54894  0.72235  Biso   1.000  O 
  O17      1.0000 0.09365  0.54471  0.38902  Biso   1.000  O 
  O18      1.0000 0.45106  0.90635  0.05568  Biso   1.000  O 
