data_image0
_cell_length_a       7.27528
_cell_length_b       7.27528
_cell_length_c       8.20578
_cell_angle_alpha    90
_cell_angle_beta     90
_cell_angle_gamma    120

_symmetry_space_group_name_H-M    "P 1"
_symmetry_int_tables_number       1

loop_
  _symmetry_equiv_pos_as_xyz
  'x, y, z'

loop_
  _atom_site_label
  _atom_site_occupancy
  _atom_site_fract_x
  _atom_site_fract_y
  _atom_site_fract_z
  _atom_site_thermal_displace_type
  _atom_site_B_iso_or_equiv
  _atom_site_type_symbol
  Cd1      1.0000 0.00000  0.00000  0.00000  Biso   1.000  Cd
  Ag1      1.0000 0.51702  0.48298  0.50000  Biso   1.000  Ag
  Ag2      1.0000 0.51702  0.03404  0.50000  Biso   1.000  Ag
  Ag3      1.0000 0.96596  0.48298  0.50000  Biso   1.000  Ag
  Rb1      1.0000 0.33333  0.66667  0.00000  Biso   1.000  Rb
  N1       1.0000 0.74260  0.74163  0.17385  Biso   1.000  N 
  N2       1.0000 0.25837  0.00096  0.17385  Biso   1.000  N 
  N3       1.0000 0.99904  0.25740  0.17385  Biso   1.000  N 
  N4       1.0000 0.25837  0.25740  0.82615  Biso   1.000  N 
  N5       1.0000 0.99904  0.74163  0.82615  Biso   1.000  N 
  N6       1.0000 0.74260  0.00096  0.82615  Biso   1.000  N 
  C1       1.0000 0.66200  0.64475  0.29244  Biso   1.000  C 
  C2       1.0000 0.35525  0.01726  0.29244  Biso   1.000  C 
  C3       1.0000 0.98274  0.33800  0.29244  Biso   1.000  C 
  C4       1.0000 0.35525  0.33800  0.70756  Biso   1.000  C 
  C5       1.0000 0.98274  0.64475  0.70756  Biso   1.000  C 
  C6       1.0000 0.66200  0.01726  0.70756  Biso   1.000  C 
