data_image0
_cell_length_a       6.9968
_cell_length_b       6.9968
_cell_length_c       8.15145
_cell_angle_alpha    90
_cell_angle_beta     90
_cell_angle_gamma    120

_symmetry_space_group_name_H-M    "P 1"
_symmetry_int_tables_number       1

loop_
  _symmetry_equiv_pos_as_xyz
  'x, y, z'

loop_
  _atom_site_label
  _atom_site_occupancy
  _atom_site_fract_x
  _atom_site_fract_y
  _atom_site_fract_z
  _atom_site_thermal_displace_type
  _atom_site_B_iso_or_equiv
  _atom_site_type_symbol
  Ag1      1.0000 0.50813  0.49187  0.50000  Biso   1.000  Ag
  Ag2      1.0000 0.50813  0.01627  0.50000  Biso   1.000  Ag
  Ag3      1.0000 0.98373  0.49187  0.50000  Biso   1.000  Ag
  Mn1      1.0000 0.00000  0.00000  0.00000  Biso   1.000  Mn
  K1       1.0000 0.33333  0.66667  0.00000  Biso   1.000  K 
  N1       1.0000 0.25240  0.25673  0.83250  Biso   1.000  N 
  N2       1.0000 0.74327  0.99568  0.83250  Biso   1.000  N 
  N3       1.0000 0.00432  0.74760  0.83250  Biso   1.000  N 
  N4       1.0000 0.74327  0.74760  0.16750  Biso   1.000  N 
  N5       1.0000 0.00432  0.25673  0.16750  Biso   1.000  N 
  N6       1.0000 0.25240  0.99568  0.16750  Biso   1.000  N 
  C1       1.0000 0.35084  0.34414  0.71308  Biso   1.000  C 
  C2       1.0000 0.65586  0.00670  0.71308  Biso   1.000  C 
  C3       1.0000 0.99330  0.64916  0.71308  Biso   1.000  C 
  C4       1.0000 0.65586  0.64916  0.28692  Biso   1.000  C 
  C5       1.0000 0.99330  0.34414  0.28692  Biso   1.000  C 
  C6       1.0000 0.35084  0.00670  0.28692  Biso   1.000  C 
