data_image0
_cell_length_a       7.04825
_cell_length_b       7.04825
_cell_length_c       8.63932
_cell_angle_alpha    89.8903
_cell_angle_beta     89.8903
_cell_angle_gamma    119.318

_symmetry_space_group_name_H-M    "P 1"
_symmetry_int_tables_number       1

loop_
  _symmetry_equiv_pos_as_xyz
  'x, y, z'

loop_
  _atom_site_label
  _atom_site_occupancy
  _atom_site_fract_x
  _atom_site_fract_y
  _atom_site_fract_z
  _atom_site_thermal_displace_type
  _atom_site_B_iso_or_equiv
  _atom_site_type_symbol
  Ag1      1.0000 0.50000  0.50000  0.00000  Biso   1.000  Ag
  Ag2      1.0000 0.00000  0.50000  1.00000  Biso   1.000  Ag
  Ag3      1.0000 0.50000  0.00000  1.00000  Biso   1.000  Ag
  C1       1.0000 0.36562  0.36562  0.20894  Biso   1.000  C 
  C2       1.0000 0.63438  0.63438  0.79106  Biso   1.000  C 
  C3       1.0000 0.00076  0.36597  0.79113  Biso   1.000  C 
  C4       1.0000 0.36597  0.00076  0.79113  Biso   1.000  C 
  C5       1.0000 0.99924  0.63403  0.20887  Biso   1.000  C 
  C6       1.0000 0.63403  0.99924  0.20887  Biso   1.000  C 
  N1       1.0000 0.29179  0.29179  0.33081  Biso   1.000  N 
  N2       1.0000 0.70821  0.70821  0.66919  Biso   1.000  N 
  N3       1.0000 0.00067  0.29261  0.66911  Biso   1.000  N 
  N4       1.0000 0.29261  0.00067  0.66911  Biso   1.000  N 
  N5       1.0000 0.99933  0.70739  0.33089  Biso   1.000  N 
  N6       1.0000 0.70739  0.99933  0.33089  Biso   1.000  N 
  K1       1.0000 0.66690  0.33310  0.50000  Biso   1.000  K 
  K2       1.0000 0.33310  0.66690  0.50000  Biso   1.000  K 
  Na1      1.0000 0.00000  0.00000  0.50000  Biso   1.000  Na
