data_image0
_cell_length_a       7.11336
_cell_length_b       7.11336
_cell_length_c       8.6217
_cell_angle_alpha    90
_cell_angle_beta     90
_cell_angle_gamma    120

_symmetry_space_group_name_H-M    "P 1"
_symmetry_int_tables_number       1

loop_
  _symmetry_equiv_pos_as_xyz
  'x, y, z'

loop_
  _atom_site_label
  _atom_site_occupancy
  _atom_site_fract_x
  _atom_site_fract_y
  _atom_site_fract_z
  _atom_site_thermal_displace_type
  _atom_site_B_iso_or_equiv
  _atom_site_type_symbol
  Ag1      1.0000 0.50000  0.00000  0.00000  Biso   1.000  Ag
  Ag2      1.0000 0.50000  0.50000  0.00000  Biso   1.000  Ag
  Ag3      1.0000 0.00000  0.50000  0.00000  Biso   1.000  Ag
  K1       1.0000 0.66667  0.33333  0.50000  Biso   1.000  K 
  K2       1.0000 0.33333  0.66667  0.50000  Biso   1.000  K 
  Na1      1.0000 0.00000  0.00000  0.50000  Biso   1.000  Na
  C1       1.0000 0.36605  0.36605  0.79061  Biso   1.000  C 
  C2       1.0000 1.00000  0.63395  0.79061  Biso   1.000  C 
  C3       1.0000 0.63395  0.00000  0.79061  Biso   1.000  C 
  C4       1.0000 0.63395  0.63395  0.20939  Biso   1.000  C 
  C5       1.0000 0.00000  0.36605  0.20939  Biso   1.000  C 
  C6       1.0000 0.36605  0.00000  0.20939  Biso   1.000  C 
  N1       1.0000 0.29292  0.29292  0.66838  Biso   1.000  N 
  N2       1.0000 1.00000  0.70708  0.66838  Biso   1.000  N 
  N3       1.0000 0.70708  0.00000  0.66838  Biso   1.000  N 
  N4       1.0000 0.70708  0.70708  0.33162  Biso   1.000  N 
  N5       1.0000 0.00000  0.29292  0.33162  Biso   1.000  N 
  N6       1.0000 0.29292  0.00000  0.33162  Biso   1.000  N 
