data_image0
_cell_length_a       6.77871
_cell_length_b       9.45881
_cell_length_c       9.21616
_cell_angle_alpha    88.8477
_cell_angle_beta     90
_cell_angle_gamma    90

_symmetry_space_group_name_H-M    "P 1"
_symmetry_int_tables_number       1

loop_
  _symmetry_equiv_pos_as_xyz
  'x, y, z'

loop_
  _atom_site_label
  _atom_site_occupancy
  _atom_site_fract_x
  _atom_site_fract_y
  _atom_site_fract_z
  _atom_site_thermal_displace_type
  _atom_site_B_iso_or_equiv
  _atom_site_type_symbol
  Ag1      1.0000 0.00000  0.00000  0.00000  Biso   1.000  Ag
  Ag2      1.0000 0.50000  0.50000  0.00000  Biso   1.000  Ag
  Ag3      1.0000 0.00000  0.81362  0.39477  Biso   1.000  Ag
  Ag4      1.0000 0.00000  0.18638  0.60523  Biso   1.000  Ag
  Ag5      1.0000 0.50000  0.68638  0.60523  Biso   1.000  Ag
  Ag6      1.0000 0.50000  0.31362  0.39477  Biso   1.000  Ag
  Hf1      1.0000 0.00000  0.58930  0.78510  Biso   1.000  Hf
  Hf2      1.0000 0.00000  0.41070  0.21490  Biso   1.000  Hf
  Hf3      1.0000 0.50000  0.91070  0.21490  Biso   1.000  Hf
  Hf4      1.0000 0.50000  0.08930  0.78510  Biso   1.000  Hf
  F1       1.0000 0.50000  0.00000  0.00000  Biso   1.000  F 
  F2       1.0000 0.00000  0.50000  0.00000  Biso   1.000  F 
  F3       1.0000 0.00000  0.00000  0.50000  Biso   1.000  F 
  F4       1.0000 0.50000  0.50000  0.50000  Biso   1.000  F 
  F5       1.0000 0.00000  0.61091  0.29210  Biso   1.000  F 
  F6       1.0000 0.00000  0.38909  0.70790  Biso   1.000  F 
  F7       1.0000 0.50000  0.88909  0.70790  Biso   1.000  F 
  F8       1.0000 0.50000  0.11091  0.29210  Biso   1.000  F 
  F9       1.0000 0.00000  0.22865  0.12077  Biso   1.000  F 
  F10      1.0000 0.00000  0.77135  0.87923  Biso   1.000  F 
  F11      1.0000 0.50000  0.27135  0.87923  Biso   1.000  F 
  F12      1.0000 0.50000  0.72865  0.12077  Biso   1.000  F 
  F13      1.0000 0.32303  0.83121  0.38477  Biso   1.000  F 
  F14      1.0000 0.32303  0.16879  0.61523  Biso   1.000  F 
  F15      1.0000 0.67697  0.16879  0.61523  Biso   1.000  F 
  F16      1.0000 0.67697  0.83121  0.38477  Biso   1.000  F 
  F17      1.0000 0.82303  0.66879  0.61523  Biso   1.000  F 
  F18      1.0000 0.17697  0.66879  0.61523  Biso   1.000  F 
  F19      1.0000 0.17697  0.33121  0.38477  Biso   1.000  F 
  F20      1.0000 0.82303  0.33121  0.38477  Biso   1.000  F 
  F21      1.0000 0.20565  0.94001  0.16236  Biso   1.000  F 
  F22      1.0000 0.20565  0.05999  0.83764  Biso   1.000  F 
  F23      1.0000 0.79435  0.05999  0.83764  Biso   1.000  F 
  F24      1.0000 0.79435  0.94001  0.16236  Biso   1.000  F 
  F25      1.0000 0.70565  0.55999  0.83764  Biso   1.000  F 
  F26      1.0000 0.29435  0.55999  0.83764  Biso   1.000  F 
  F27      1.0000 0.29435  0.44001  0.16236  Biso   1.000  F 
  F28      1.0000 0.70565  0.44001  0.16236  Biso   1.000  F 
