data_image0
_cell_length_a       11.4128
_cell_length_b       5.18878
_cell_length_c       5.53273
_cell_angle_alpha    84.9808
_cell_angle_beta     90
_cell_angle_gamma    90

_symmetry_space_group_name_H-M    "P 1"
_symmetry_int_tables_number       1

loop_
  _symmetry_equiv_pos_as_xyz
  'x, y, z'

loop_
  _atom_site_label
  _atom_site_occupancy
  _atom_site_fract_x
  _atom_site_fract_y
  _atom_site_fract_z
  _atom_site_thermal_displace_type
  _atom_site_B_iso_or_equiv
  _atom_site_type_symbol
  Ag1      1.0000 0.50000  1.00000  0.50000  Biso   1.000  Ag
  Ag2      1.0000 0.00000  0.50000  0.00000  Biso   1.000  Ag
  Ag3      1.0000 0.18533  0.76312  0.48770  Biso   1.000  Ag
  Ag4      1.0000 0.68533  0.73688  0.01230  Biso   1.000  Ag
  Ag5      1.0000 0.81467  0.23688  0.51230  Biso   1.000  Ag
  Ag6      1.0000 0.31467  0.26312  0.98770  Biso   1.000  Ag
  F1       1.0000 0.09171  0.77534  0.18425  Biso   1.000  F 
  F2       1.0000 0.59171  0.72466  0.31575  Biso   1.000  F 
  F3       1.0000 0.90829  0.22466  0.81575  Biso   1.000  F 
  F4       1.0000 0.40829  0.27534  0.68425  Biso   1.000  F 
  F5       1.0000 0.03597  0.73762  0.67294  Biso   1.000  F 
  F6       1.0000 0.53597  0.76238  0.82706  Biso   1.000  F 
  F7       1.0000 0.96403  0.26238  0.32706  Biso   1.000  F 
  F8       1.0000 0.46403  0.23762  0.17294  Biso   1.000  F 
  F9       1.0000 0.33006  0.79135  0.30196  Biso   1.000  F 
  F10      1.0000 0.83006  0.70865  0.19804  Biso   1.000  F 
  F11      1.0000 0.66994  0.20865  0.69804  Biso   1.000  F 
  F12      1.0000 0.16994  0.29135  0.80196  Biso   1.000  F 
  F13      1.0000 0.27998  0.77905  0.77700  Biso   1.000  F 
  F14      1.0000 0.77998  0.72095  0.72300  Biso   1.000  F 
  F15      1.0000 0.72002  0.22095  0.22300  Biso   1.000  F 
  F16      1.0000 0.22002  0.27905  0.27700  Biso   1.000  F 
