data_image0
_cell_length_a       4.93424
_cell_length_b       4.93424
_cell_length_c       4.93424
_cell_angle_alpha    89.4576
_cell_angle_beta     89.4576
_cell_angle_gamma    89.4576

_symmetry_space_group_name_H-M    "P 1"
_symmetry_int_tables_number       1

loop_
  _symmetry_equiv_pos_as_xyz
  'x, y, z'

loop_
  _atom_site_label
  _atom_site_occupancy
  _atom_site_fract_x
  _atom_site_fract_y
  _atom_site_fract_z
  _atom_site_thermal_displace_type
  _atom_site_B_iso_or_equiv
  _atom_site_type_symbol
  I1       1.0000 0.99370  0.99370  0.99370  Biso   1.000  I 
  S1       1.0000 0.53383  0.53383  0.53383  Biso   1.000  S 
  Ag1      1.0000 0.03164  0.52168  0.38315  Biso   1.000  Ag
  Ag2      1.0000 0.38315  0.03164  0.52168  Biso   1.000  Ag
  Ag3      1.0000 0.52168  0.38315  0.03164  Biso   1.000  Ag
