data_image0
_cell_length_a       5.21799
_cell_length_b       5.21799
_cell_length_c       7.55859
_cell_angle_alpha    85.3731
_cell_angle_beta     85.3731
_cell_angle_gamma    64.4118

_symmetry_space_group_name_H-M    "P 1"
_symmetry_int_tables_number       1

loop_
  _symmetry_equiv_pos_as_xyz
  'x, y, z'

loop_
  _atom_site_label
  _atom_site_occupancy
  _atom_site_fract_x
  _atom_site_fract_y
  _atom_site_fract_z
  _atom_site_thermal_displace_type
  _atom_site_B_iso_or_equiv
  _atom_site_type_symbol
  In1      1.0000 0.00000  0.00000  0.00000  Biso   1.000  In
  Ag1      1.0000 0.36336  0.36336  0.64132  Biso   1.000  Ag
  Ag2      1.0000 0.63664  0.63664  0.35868  Biso   1.000  Ag
  Ag3      1.0000 0.00000  0.00000  0.50000  Biso   1.000  Ag
  P1       1.0000 0.33558  0.33558  0.20810  Biso   1.000  P 
  P2       1.0000 0.66442  0.66442  0.79190  Biso   1.000  P 
  O1       1.0000 0.23971  0.23971  0.39271  Biso   1.000  O 
  O2       1.0000 0.76029  0.76029  0.60729  Biso   1.000  O 
  O3       1.0000 0.23646  0.23646  0.05359  Biso   1.000  O 
  O4       1.0000 0.76354  0.76354  0.94641  Biso   1.000  O 
  O5       1.0000 0.21717  0.66853  0.20399  Biso   1.000  O 
  O6       1.0000 0.66853  0.21717  0.20399  Biso   1.000  O 
  O7       1.0000 0.78283  0.33147  0.79601  Biso   1.000  O 
  O8       1.0000 0.33147  0.78283  0.79601  Biso   1.000  O 
