data_image0
_cell_length_a       9.1628
_cell_length_b       9.1628
_cell_length_c       6.70959
_cell_angle_alpha    73.1881
_cell_angle_beta     73.1881
_cell_angle_gamma    90.8536

_symmetry_space_group_name_H-M    "P 1"
_symmetry_int_tables_number       1

loop_
  _symmetry_equiv_pos_as_xyz
  'x, y, z'

loop_
  _atom_site_label
  _atom_site_occupancy
  _atom_site_fract_x
  _atom_site_fract_y
  _atom_site_fract_z
  _atom_site_thermal_displace_type
  _atom_site_B_iso_or_equiv
  _atom_site_type_symbol
  In1      1.0000 0.07138  0.38455  0.34672  Biso   1.000  In
  In2      1.0000 0.61545  0.92862  0.15328  Biso   1.000  In
  In3      1.0000 0.92862  0.61545  0.65328  Biso   1.000  In
  In4      1.0000 0.38455  0.07138  0.84672  Biso   1.000  In
  P1       1.0000 0.34183  0.13879  0.36167  Biso   1.000  P 
  P2       1.0000 0.86121  0.65817  0.13833  Biso   1.000  P 
  P3       1.0000 0.65817  0.86121  0.63833  Biso   1.000  P 
  P4       1.0000 0.13879  0.34183  0.86167  Biso   1.000  P 
  P5       1.0000 0.72885  0.27115  0.75000  Biso   1.000  P 
  P6       1.0000 0.27115  0.72885  0.25000  Biso   1.000  P 
  O1       1.0000 0.43603  0.28775  0.32673  Biso   1.000  O 
  O2       1.0000 0.71225  0.56397  0.17327  Biso   1.000  O 
  O3       1.0000 0.56397  0.71225  0.67327  Biso   1.000  O 
  O4       1.0000 0.28775  0.43603  0.82673  Biso   1.000  O 
  O5       1.0000 0.40941  0.06730  0.17160  Biso   1.000  O 
  O6       1.0000 0.93270  0.59059  0.32840  Biso   1.000  O 
  O7       1.0000 0.59059  0.93270  0.82840  Biso   1.000  O 
  O8       1.0000 0.06730  0.40941  0.67160  Biso   1.000  O 
  O9       1.0000 0.17044  0.16607  0.37284  Biso   1.000  O 
  O10      1.0000 0.83393  0.82956  0.12716  Biso   1.000  O 
  O11      1.0000 0.82956  0.83393  0.62716  Biso   1.000  O 
  O12      1.0000 0.16607  0.17044  0.87284  Biso   1.000  O 
  O13      1.0000 0.33837  0.01512  0.57901  Biso   1.000  O 
  O14      1.0000 0.98488  0.66163  0.92099  Biso   1.000  O 
  O15      1.0000 0.66163  0.98488  0.42099  Biso   1.000  O 
  O16      1.0000 0.01512  0.33837  0.07901  Biso   1.000  O 
  O17      1.0000 0.85068  0.25291  0.54411  Biso   1.000  O 
  O18      1.0000 0.74709  0.14932  0.95589  Biso   1.000  O 
  O19      1.0000 0.14932  0.74709  0.45589  Biso   1.000  O 
  O20      1.0000 0.25291  0.85068  0.04411  Biso   1.000  O 
  O21      1.0000 0.74562  0.43242  0.77953  Biso   1.000  O 
  O22      1.0000 0.56758  0.25438  0.72047  Biso   1.000  O 
  O23      1.0000 0.25438  0.56758  0.22047  Biso   1.000  O 
  O24      1.0000 0.43242  0.74562  0.27953  Biso   1.000  O 
  Ag1      1.0000 0.72136  0.27864  0.25000  Biso   1.000  Ag
  Ag2      1.0000 0.27864  0.72136  0.75000  Biso   1.000  Ag
  Ag3      1.0000 0.00141  0.99859  0.75000  Biso   1.000  Ag
  Ag4      1.0000 0.99859  0.00141  0.25000  Biso   1.000  Ag
  Ag5      1.0000 0.50000  0.50000  0.00000  Biso   1.000  Ag
  Ag6      1.0000 0.50000  0.50000  0.50000  Biso   1.000  Ag
