data_image0
_cell_length_a       12.8615
_cell_length_b       12.8615
_cell_length_c       14.1363
_cell_angle_alpha    62.5847
_cell_angle_beta     62.5847
_cell_angle_gamma    26.9128

_symmetry_space_group_name_H-M    "P 1"
_symmetry_int_tables_number       1

loop_
  _symmetry_equiv_pos_as_xyz
  'x, y, z'

loop_
  _atom_site_label
  _atom_site_occupancy
  _atom_site_fract_x
  _atom_site_fract_y
  _atom_site_fract_z
  _atom_site_thermal_displace_type
  _atom_site_B_iso_or_equiv
  _atom_site_type_symbol
  Ta1      1.0000 0.43864  0.81527  0.22045  Biso   1.000  Ta
  Ta2      1.0000 0.18473  0.56136  0.27955  Biso   1.000  Ta
  Ta3      1.0000 0.56136  0.18473  0.77955  Biso   1.000  Ta
  Ta4      1.0000 0.81527  0.43864  0.72045  Biso   1.000  Ta
  Ag1      1.0000 0.31814  0.68186  0.25000  Biso   1.000  Ag
  Ag2      1.0000 0.68186  0.31814  0.75000  Biso   1.000  Ag
  Ag3      1.0000 0.94084  0.31552  0.21126  Biso   1.000  Ag
  Ag4      1.0000 0.68448  0.05916  0.28874  Biso   1.000  Ag
  Ag5      1.0000 0.05916  0.68448  0.78874  Biso   1.000  Ag
  Ag6      1.0000 0.31552  0.94084  0.71126  Biso   1.000  Ag
  K1       1.0000 0.79840  0.59707  0.39306  Biso   1.000  K 
  K2       1.0000 0.40293  0.20160  0.10694  Biso   1.000  K 
  K3       1.0000 0.20160  0.40293  0.60694  Biso   1.000  K 
  K4       1.0000 0.59707  0.79840  0.89306  Biso   1.000  K 
  K5       1.0000 0.00000  0.00000  0.50000  Biso   1.000  K 
  K6       1.0000 0.00000  0.00000  0.00000  Biso   1.000  K 
  S1       1.0000 0.19923  0.99124  0.11672  Biso   1.000  S 
  S2       1.0000 0.00876  0.80077  0.38328  Biso   1.000  S 
  S3       1.0000 0.80077  0.00876  0.88328  Biso   1.000  S 
  S4       1.0000 0.99124  0.19923  0.61672  Biso   1.000  S 
  S5       1.0000 0.58125  0.51680  0.34523  Biso   1.000  S 
  S6       1.0000 0.48320  0.41875  0.15477  Biso   1.000  S 
  S7       1.0000 0.41875  0.48320  0.65477  Biso   1.000  S 
  S8       1.0000 0.51680  0.58125  0.84523  Biso   1.000  S 
  S9       1.0000 0.24759  0.06954  0.31690  Biso   1.000  S 
  S10      1.0000 0.93046  0.75241  0.18310  Biso   1.000  S 
  S11      1.0000 0.75241  0.93046  0.68310  Biso   1.000  S 
  S12      1.0000 0.06954  0.24759  0.81690  Biso   1.000  S 
  S13      1.0000 0.73044  0.68684  0.10723  Biso   1.000  S 
  S14      1.0000 0.31316  0.26956  0.39277  Biso   1.000  S 
  S15      1.0000 0.26956  0.31316  0.89277  Biso   1.000  S 
  S16      1.0000 0.68684  0.73044  0.60723  Biso   1.000  S 
