data_image0
_cell_length_a       12.8257
_cell_length_b       12.8257
_cell_length_c       14.2287
_cell_angle_alpha    61.7396
_cell_angle_beta     61.7396
_cell_angle_gamma    26.8868

_symmetry_space_group_name_H-M    "P 1"
_symmetry_int_tables_number       1

loop_
  _symmetry_equiv_pos_as_xyz
  'x, y, z'

loop_
  _atom_site_label
  _atom_site_occupancy
  _atom_site_fract_x
  _atom_site_fract_y
  _atom_site_fract_z
  _atom_site_thermal_displace_type
  _atom_site_B_iso_or_equiv
  _atom_site_type_symbol
  Ag1      1.0000 0.32000  0.68000  0.25000  Biso   1.000  Ag
  Ag2      1.0000 0.68000  0.32000  0.75000  Biso   1.000  Ag
  Ag3      1.0000 0.94124  0.31581  0.21179  Biso   1.000  Ag
  Ag4      1.0000 0.68419  0.05876  0.28821  Biso   1.000  Ag
  Ag5      1.0000 0.05876  0.68419  0.78821  Biso   1.000  Ag
  Ag6      1.0000 0.31581  0.94124  0.71179  Biso   1.000  Ag
  Nb1      1.0000 0.43999  0.81564  0.21941  Biso   1.000  Nb
  Nb2      1.0000 0.18436  0.56001  0.28059  Biso   1.000  Nb
  Nb3      1.0000 0.56001  0.18436  0.78059  Biso   1.000  Nb
  Nb4      1.0000 0.81564  0.43999  0.71941  Biso   1.000  Nb
  K1       1.0000 0.79539  0.59639  0.39470  Biso   1.000  K 
  K2       1.0000 0.40361  0.20461  0.10530  Biso   1.000  K 
  K3       1.0000 0.20461  0.40361  0.60530  Biso   1.000  K 
  K4       1.0000 0.59639  0.79539  0.89470  Biso   1.000  K 
  K5       1.0000 0.00000  0.00000  0.50000  Biso   1.000  K 
  K6       1.0000 0.00000  0.00000  0.00000  Biso   1.000  K 
  S1       1.0000 0.19820  0.99400  0.11642  Biso   1.000  S 
  S2       1.0000 0.00600  0.80180  0.38358  Biso   1.000  S 
  S3       1.0000 0.80180  0.00600  0.88358  Biso   1.000  S 
  S4       1.0000 0.99400  0.19820  0.61642  Biso   1.000  S 
  S5       1.0000 0.58106  0.51499  0.34603  Biso   1.000  S 
  S6       1.0000 0.48501  0.41894  0.15397  Biso   1.000  S 
  S7       1.0000 0.41894  0.48501  0.65397  Biso   1.000  S 
  S8       1.0000 0.51499  0.58106  0.84603  Biso   1.000  S 
  S9       1.0000 0.24816  0.07103  0.31543  Biso   1.000  S 
  S10      1.0000 0.92897  0.75184  0.18457  Biso   1.000  S 
  S11      1.0000 0.75184  0.92897  0.68457  Biso   1.000  S 
  S12      1.0000 0.07103  0.24816  0.81543  Biso   1.000  S 
  S13      1.0000 0.73516  0.68556  0.10445  Biso   1.000  S 
  S14      1.0000 0.31444  0.26484  0.39555  Biso   1.000  S 
  S15      1.0000 0.26484  0.31444  0.89555  Biso   1.000  S 
  S16      1.0000 0.68556  0.73516  0.60445  Biso   1.000  S 
