data_image0
_cell_length_a       8.58834
_cell_length_b       8.58834
_cell_length_c       8.72476
_cell_angle_alpha    65.6793
_cell_angle_beta     65.6793
_cell_angle_gamma    29.6246

_symmetry_space_group_name_H-M    "P 1"
_symmetry_int_tables_number       1

loop_
  _symmetry_equiv_pos_as_xyz
  'x, y, z'

loop_
  _atom_site_label
  _atom_site_occupancy
  _atom_site_fract_x
  _atom_site_fract_y
  _atom_site_fract_z
  _atom_site_thermal_displace_type
  _atom_site_B_iso_or_equiv
  _atom_site_type_symbol
  Ag1      1.0000 0.40716  0.40716  0.64913  Biso   1.000  Ag
  Ag2      1.0000 0.59284  0.59284  0.35087  Biso   1.000  Ag
  Ag3      1.0000 0.31292  0.31292  0.43308  Biso   1.000  Ag
  Ag4      1.0000 0.68708  0.68708  0.56692  Biso   1.000  Ag
  Ag5      1.0000 0.94396  0.94396  0.40081  Biso   1.000  Ag
  Ag6      1.0000 0.05604  0.05604  0.59919  Biso   1.000  Ag
  Se1      1.0000 0.79675  0.79675  0.71130  Biso   1.000  Se
  Se2      1.0000 0.20325  0.20325  0.28870  Biso   1.000  Se
  Se3      1.0000 0.48504  0.48504  0.20279  Biso   1.000  Se
  Se4      1.0000 0.51496  0.51496  0.79721  Biso   1.000  Se
  K1       1.0000 0.86216  0.86216  0.05007  Biso   1.000  K 
  K2       1.0000 0.13784  0.13784  0.94993  Biso   1.000  K 
