data_image0
_cell_length_a       9.43641
_cell_length_b       9.43641
_cell_length_c       9.43641
_cell_angle_alpha    60
_cell_angle_beta     60
_cell_angle_gamma    60

_symmetry_space_group_name_H-M    "P 1"
_symmetry_int_tables_number       1

loop_
  _symmetry_equiv_pos_as_xyz
  'x, y, z'

loop_
  _atom_site_label
  _atom_site_occupancy
  _atom_site_fract_x
  _atom_site_fract_y
  _atom_site_fract_z
  _atom_site_thermal_displace_type
  _atom_site_B_iso_or_equiv
  _atom_site_type_symbol
  Ag1      1.0000 0.34044  0.34044  0.65956  Biso   1.000  Ag
  Ag2      1.0000 0.65956  0.65956  0.34044  Biso   1.000  Ag
  Ag3      1.0000 0.34044  0.65956  0.34044  Biso   1.000  Ag
  Ag4      1.0000 0.65956  0.34044  0.65956  Biso   1.000  Ag
  Ag5      1.0000 0.65956  0.34044  0.34044  Biso   1.000  Ag
  Ag6      1.0000 0.34044  0.65956  0.65956  Biso   1.000  Ag
  Ag7      1.0000 0.90956  0.90956  0.59044  Biso   1.000  Ag
  Ag8      1.0000 0.59044  0.59044  0.90956  Biso   1.000  Ag
  Ag9      1.0000 0.90956  0.59044  0.90956  Biso   1.000  Ag
  Ag10     1.0000 0.59044  0.90956  0.59044  Biso   1.000  Ag
  Ag11     1.0000 0.59044  0.90956  0.90956  Biso   1.000  Ag
  Ag12     1.0000 0.90956  0.59044  0.59044  Biso   1.000  Ag
  K1       1.0000 0.12500  0.12500  0.62500  Biso   1.000  K 
  K2       1.0000 0.12500  0.12500  0.12500  Biso   1.000  K 
  K3       1.0000 0.62500  0.12500  0.12500  Biso   1.000  K 
  K4       1.0000 0.12500  0.62500  0.12500  Biso   1.000  K 
  S1       1.0000 0.37182  0.37182  0.37182  Biso   1.000  S 
  S2       1.0000 0.37182  0.37182  0.88454  Biso   1.000  S 
  S3       1.0000 0.37182  0.88454  0.37182  Biso   1.000  S 
  S4       1.0000 0.88454  0.37182  0.37182  Biso   1.000  S 
  S5       1.0000 0.87818  0.87818  0.87818  Biso   1.000  S 
  S6       1.0000 0.87818  0.87818  0.36546  Biso   1.000  S 
  S7       1.0000 0.87818  0.36546  0.87818  Biso   1.000  S 
  S8       1.0000 0.36546  0.87818  0.87818  Biso   1.000  S 
