data_image0
_cell_length_a       6.44736
_cell_length_b       6.44736
_cell_length_c       6.44736
_cell_angle_alpha    127.528
_cell_angle_beta     124.971
_cell_angle_gamma    79.4956

_symmetry_space_group_name_H-M    "P 1"
_symmetry_int_tables_number       1

loop_
  _symmetry_equiv_pos_as_xyz
  'x, y, z'

loop_
  _atom_site_label
  _atom_site_occupancy
  _atom_site_fract_x
  _atom_site_fract_y
  _atom_site_fract_z
  _atom_site_thermal_displace_type
  _atom_site_B_iso_or_equiv
  _atom_site_type_symbol
  Li1      1.0000 0.50000  0.25000  0.75000  Biso   1.000  Li
  Li2      1.0000 0.50000  0.75000  0.25000  Biso   1.000  Li
  Ag1      1.0000 0.00000  0.00000  0.00000  Biso   1.000  Ag
  Ag2      1.0000 0.00000  0.50000  0.50000  Biso   1.000  Ag
  Ag3      1.0000 0.50000  0.50000  0.50000  Biso   1.000  Ag
  Ag4      1.0000 0.00000  0.00000  0.50000  Biso   1.000  Ag
  Ag5      1.0000 0.00000  0.50000  0.00000  Biso   1.000  Ag
  Ag6      1.0000 0.50000  1.00000  1.00000  Biso   1.000  Ag
  O1       1.0000 0.41710  0.09572  0.32138  Biso   1.000  O 
  O2       1.0000 0.77434  0.59572  0.17862  Biso   1.000  O 
  O3       1.0000 0.22566  0.40428  0.82138  Biso   1.000  O 
  O4       1.0000 0.58290  0.90428  0.67862  Biso   1.000  O 
