data_image0
_cell_length_a       7.85114
_cell_length_b       7.85114
_cell_length_c       7.85114
_cell_angle_alpha    90
_cell_angle_beta     90
_cell_angle_gamma    90

_symmetry_space_group_name_H-M    "P 1"
_symmetry_int_tables_number       1

loop_
  _symmetry_equiv_pos_as_xyz
  'x, y, z'

loop_
  _atom_site_label
  _atom_site_occupancy
  _atom_site_fract_x
  _atom_site_fract_y
  _atom_site_fract_z
  _atom_site_thermal_displace_type
  _atom_site_B_iso_or_equiv
  _atom_site_type_symbol
  Ag1      1.0000 0.31763  0.98118  0.36684  Biso   1.000  Ag
  Ag2      1.0000 0.13316  0.68237  0.48118  Biso   1.000  Ag
  Ag3      1.0000 0.51882  0.63316  0.81763  Biso   1.000  Ag
  Ag4      1.0000 0.18237  0.01882  0.86684  Biso   1.000  Ag
  Ag5      1.0000 0.63316  0.81763  0.51882  Biso   1.000  Ag
  Ag6      1.0000 0.01882  0.86684  0.18237  Biso   1.000  Ag
  Ag7      1.0000 0.68237  0.48118  0.13316  Biso   1.000  Ag
  Ag8      1.0000 0.86684  0.18237  0.01882  Biso   1.000  Ag
  Ag9      1.0000 0.48118  0.13316  0.68237  Biso   1.000  Ag
  Ag10     1.0000 0.81763  0.51882  0.63316  Biso   1.000  Ag
  Ag11     1.0000 0.36684  0.31763  0.98118  Biso   1.000  Ag
  Ag12     1.0000 0.98118  0.36684  0.31763  Biso   1.000  Ag
  S1       1.0000 0.15234  0.15234  0.15234  Biso   1.000  S 
  S2       1.0000 0.34766  0.84766  0.65234  Biso   1.000  S 
  S3       1.0000 0.84766  0.65234  0.34766  Biso   1.000  S 
  S4       1.0000 0.65234  0.34766  0.84766  Biso   1.000  S 
  N1       1.0000 0.42309  0.42309  0.42309  Biso   1.000  N 
  N2       1.0000 0.07691  0.57691  0.92309  Biso   1.000  N 
  N3       1.0000 0.57691  0.92309  0.07691  Biso   1.000  N 
  N4       1.0000 0.92309  0.07691  0.57691  Biso   1.000  N 
  O1       1.0000 0.31021  0.42057  0.53892  Biso   1.000  O 
  O2       1.0000 0.96108  0.68979  0.92057  Biso   1.000  O 
  O3       1.0000 0.07943  0.46108  0.81021  Biso   1.000  O 
  O4       1.0000 0.18979  0.57943  0.03892  Biso   1.000  O 
  O5       1.0000 0.46108  0.81021  0.07943  Biso   1.000  O 
  O6       1.0000 0.57943  0.03892  0.18979  Biso   1.000  O 
  O7       1.0000 0.68979  0.92057  0.96108  Biso   1.000  O 
  O8       1.0000 0.03892  0.18979  0.57943  Biso   1.000  O 
  O9       1.0000 0.92057  0.96108  0.68979  Biso   1.000  O 
  O10      1.0000 0.81021  0.07943  0.46108  Biso   1.000  O 
  O11      1.0000 0.53892  0.31021  0.42057  Biso   1.000  O 
  O12      1.0000 0.42057  0.53892  0.31021  Biso   1.000  O 
