data_image0
_cell_length_a       8.82912
_cell_length_b       8.82912
_cell_length_c       8.82912
_cell_angle_alpha    60
_cell_angle_beta     60
_cell_angle_gamma    60

_symmetry_space_group_name_H-M    "P 1"
_symmetry_int_tables_number       1

loop_
  _symmetry_equiv_pos_as_xyz
  'x, y, z'

loop_
  _atom_site_label
  _atom_site_occupancy
  _atom_site_fract_x
  _atom_site_fract_y
  _atom_site_fract_z
  _atom_site_thermal_displace_type
  _atom_site_B_iso_or_equiv
  _atom_site_type_symbol
  Ag1      1.0000 0.82835  0.17165  0.17165  Biso   1.000  Ag
  Ag2      1.0000 0.17165  0.82835  0.82835  Biso   1.000  Ag
  Ag3      1.0000 0.17165  0.17165  0.82835  Biso   1.000  Ag
  Ag4      1.0000 0.82835  0.82835  0.17165  Biso   1.000  Ag
  Ag5      1.0000 0.17165  0.82835  0.17165  Biso   1.000  Ag
  Ag6      1.0000 0.82835  0.17165  0.82835  Biso   1.000  Ag
  Ag7      1.0000 0.42165  0.07835  0.07835  Biso   1.000  Ag
  Ag8      1.0000 0.07835  0.42165  0.42165  Biso   1.000  Ag
  Ag9      1.0000 0.07835  0.07835  0.42165  Biso   1.000  Ag
  Ag10     1.0000 0.42165  0.42165  0.07835  Biso   1.000  Ag
  Ag11     1.0000 0.07835  0.42165  0.07835  Biso   1.000  Ag
  Ag12     1.0000 0.42165  0.07835  0.42165  Biso   1.000  Ag
  S1       1.0000 0.83424  0.38859  0.38859  Biso   1.000  S 
  S2       1.0000 0.38859  0.83424  0.38859  Biso   1.000  S 
  S3       1.0000 0.38859  0.38859  0.83424  Biso   1.000  S 
  S4       1.0000 0.38859  0.38859  0.38859  Biso   1.000  S 
  S5       1.0000 0.41576  0.86141  0.86141  Biso   1.000  S 
  S6       1.0000 0.86141  0.41576  0.86141  Biso   1.000  S 
  S7       1.0000 0.86141  0.86141  0.41576  Biso   1.000  S 
  S8       1.0000 0.86141  0.86141  0.86141  Biso   1.000  S 
  Na1      1.0000 0.12500  0.62500  0.62500  Biso   1.000  Na
  Na2      1.0000 0.62500  0.12500  0.62500  Biso   1.000  Na
  Na3      1.0000 0.62500  0.62500  0.12500  Biso   1.000  Na
  Na4      1.0000 0.62500  0.62500  0.62500  Biso   1.000  Na
