data_image0
_cell_length_a       6.73746
_cell_length_b       6.73746
_cell_length_c       6.73746
_cell_angle_alpha    127.27
_cell_angle_beta     126.064
_cell_angle_gamma    78.7982

_symmetry_space_group_name_H-M    "P 1"
_symmetry_int_tables_number       1

loop_
  _symmetry_equiv_pos_as_xyz
  'x, y, z'

loop_
  _atom_site_label
  _atom_site_occupancy
  _atom_site_fract_x
  _atom_site_fract_y
  _atom_site_fract_z
  _atom_site_thermal_displace_type
  _atom_site_B_iso_or_equiv
  _atom_site_type_symbol
  Na1      1.0000 0.50000  0.25000  0.75000  Biso   1.000  Na
  Na2      1.0000 0.50000  0.75000  0.25000  Biso   1.000  Na
  Ag1      1.0000 0.00000  0.00000  0.00000  Biso   1.000  Ag
  Ag2      1.0000 0.00000  0.50000  0.50000  Biso   1.000  Ag
  Ag3      1.0000 0.50000  0.50000  0.50000  Biso   1.000  Ag
  Ag4      1.0000 1.00000  1.00000  0.50000  Biso   1.000  Ag
  Ag5      1.0000 0.00000  0.50000  1.00000  Biso   1.000  Ag
  Ag6      1.0000 0.50000  0.00000  0.00000  Biso   1.000  Ag
  O1       1.0000 0.40168  0.10934  0.29234  Biso   1.000  O 
  O2       1.0000 0.81700  0.60934  0.20766  Biso   1.000  O 
  O3       1.0000 0.18300  0.39066  0.79234  Biso   1.000  O 
  O4       1.0000 0.59832  0.89066  0.70766  Biso   1.000  O 
