data_image0
_cell_length_a       6.31424
_cell_length_b       6.31424
_cell_length_c       6.31424
_cell_angle_alpha    85.2337
_cell_angle_beta     85.2337
_cell_angle_gamma    85.2337

_symmetry_space_group_name_H-M    "P 1"
_symmetry_int_tables_number       1

loop_
  _symmetry_equiv_pos_as_xyz
  'x, y, z'

loop_
  _atom_site_label
  _atom_site_occupancy
  _atom_site_fract_x
  _atom_site_fract_y
  _atom_site_fract_z
  _atom_site_thermal_displace_type
  _atom_site_B_iso_or_equiv
  _atom_site_type_symbol
  Ag1      1.0000 0.80290  0.25661  0.93028  Biso   1.000  Ag
  Ag2      1.0000 0.25661  0.93028  0.80290  Biso   1.000  Ag
  Ag3      1.0000 0.93028  0.80290  0.25661  Biso   1.000  Ag
  Ag4      1.0000 0.30290  0.43028  0.75661  Biso   1.000  Ag
  Ag5      1.0000 0.43028  0.75661  0.30290  Biso   1.000  Ag
  Ag6      1.0000 0.75661  0.30290  0.43028  Biso   1.000  Ag
  Se1      1.0000 0.78101  0.78101  0.78101  Biso   1.000  Se
  Se2      1.0000 0.28101  0.28101  0.28101  Biso   1.000  Se
  N1       1.0000 0.93063  0.93063  0.93063  Biso   1.000  N 
  N2       1.0000 0.43063  0.43063  0.43063  Biso   1.000  N 
  O1       1.0000 0.58247  0.93528  0.66253  Biso   1.000  O 
  O2       1.0000 0.93528  0.66253  0.58247  Biso   1.000  O 
  O3       1.0000 0.66253  0.58247  0.93528  Biso   1.000  O 
  O4       1.0000 0.08247  0.16253  0.43528  Biso   1.000  O 
  O5       1.0000 0.16253  0.43528  0.08247  Biso   1.000  O 
  O6       1.0000 0.43528  0.08247  0.16253  Biso   1.000  O 
