data_image0
_cell_length_a       7.27252
_cell_length_b       7.27252
_cell_length_c       9.325
_cell_angle_alpha    90
_cell_angle_beta     90
_cell_angle_gamma    130.745

_symmetry_space_group_name_H-M    "P 1"
_symmetry_int_tables_number       1

loop_
  _symmetry_equiv_pos_as_xyz
  'x, y, z'

loop_
  _atom_site_label
  _atom_site_occupancy
  _atom_site_fract_x
  _atom_site_fract_y
  _atom_site_fract_z
  _atom_site_thermal_displace_type
  _atom_site_B_iso_or_equiv
  _atom_site_type_symbol
  Ag1      1.0000 0.95952  0.22503  0.39003  Biso   1.000  Ag
  Ag2      1.0000 0.77497  0.04048  0.89003  Biso   1.000  Ag
  Ag3      1.0000 0.04048  0.77497  0.89003  Biso   1.000  Ag
  Ag4      1.0000 0.22503  0.95952  0.39003  Biso   1.000  Ag
  Ag5      1.0000 0.57887  0.57887  0.45525  Biso   1.000  Ag
  Ag6      1.0000 0.42113  0.42113  0.95525  Biso   1.000  Ag
  N1       1.0000 0.84717  0.84717  0.29259  Biso   1.000  N 
  N2       1.0000 0.15283  0.15283  0.79259  Biso   1.000  N 
  N3       1.0000 0.80881  0.80881  0.16764  Biso   1.000  N 
  N4       1.0000 0.19119  0.19119  0.66764  Biso   1.000  N 
  N5       1.0000 0.77548  0.77548  0.04210  Biso   1.000  N 
  N6       1.0000 0.22452  0.22452  0.54210  Biso   1.000  N 
  N7       1.0000 0.84170  0.43922  0.62414  Biso   1.000  N 
  N8       1.0000 0.56078  0.15830  0.12414  Biso   1.000  N 
  N9       1.0000 0.15830  0.56078  0.12414  Biso   1.000  N 
  N10      1.0000 0.43922  0.84170  0.62414  Biso   1.000  N 
  O1       1.0000 0.79700  0.57098  0.67284  Biso   1.000  O 
  O2       1.0000 0.42902  0.20300  0.17284  Biso   1.000  O 
  O3       1.0000 0.20300  0.42902  0.17284  Biso   1.000  O 
  O4       1.0000 0.57098  0.79700  0.67284  Biso   1.000  O 
  O5       1.0000 0.95120  0.39414  0.69867  Biso   1.000  O 
  O6       1.0000 0.60586  0.04880  0.19867  Biso   1.000  O 
  O7       1.0000 0.04880  0.60586  0.19867  Biso   1.000  O 
  O8       1.0000 0.39414  0.95120  0.69867  Biso   1.000  O 
  O9       1.0000 0.77343  0.35817  0.49593  Biso   1.000  O 
  O10      1.0000 0.64183  0.22657  0.99593  Biso   1.000  O 
  O11      1.0000 0.22657  0.64183  0.99593  Biso   1.000  O 
  O12      1.0000 0.35817  0.77343  0.49593  Biso   1.000  O 
