data_image0
_cell_length_a       5.02544
_cell_length_b       10.2963
_cell_length_c       10.3325
_cell_angle_alpha    63.8625
_cell_angle_beta     90
_cell_angle_gamma    90

_symmetry_space_group_name_H-M    "P 1"
_symmetry_int_tables_number       1

loop_
  _symmetry_equiv_pos_as_xyz
  'x, y, z'

loop_
  _atom_site_label
  _atom_site_occupancy
  _atom_site_fract_x
  _atom_site_fract_y
  _atom_site_fract_z
  _atom_site_thermal_displace_type
  _atom_site_B_iso_or_equiv
  _atom_site_type_symbol
  Ag1      1.0000 0.04704  0.73653  0.40660  Biso   1.000  Ag
  Ag2      1.0000 0.95296  0.73653  0.90660  Biso   1.000  Ag
  Ag3      1.0000 0.95296  0.26347  0.59340  Biso   1.000  Ag
  Ag4      1.0000 0.04704  0.26347  0.09340  Biso   1.000  Ag
  Ag5      1.0000 0.45296  0.23653  0.90660  Biso   1.000  Ag
  Ag6      1.0000 0.45296  0.76347  0.59340  Biso   1.000  Ag
  Ag7      1.0000 0.54704  0.76347  0.09340  Biso   1.000  Ag
  Ag8      1.0000 0.54704  0.23653  0.40660  Biso   1.000  Ag
  Ag9      1.0000 0.00000  0.00000  0.00000  Biso   1.000  Ag
  Ag10     1.0000 0.00000  1.00000  0.50000  Biso   1.000  Ag
  Ag11     1.0000 0.50000  0.50000  0.50000  Biso   1.000  Ag
  Ag12     1.0000 0.50000  0.50000  0.00000  Biso   1.000  Ag
  V1       1.0000 0.45887  1.00000  0.25000  Biso   1.000  V 
  V2       1.0000 0.54113  1.00000  0.75000  Biso   1.000  V 
  V3       1.0000 0.04113  0.50000  0.75000  Biso   1.000  V 
  V4       1.0000 0.95887  0.50000  0.25000  Biso   1.000  V 
  O1       1.0000 0.25954  0.87800  0.21464  Biso   1.000  O 
  O2       1.0000 0.74046  0.87800  0.71464  Biso   1.000  O 
  O3       1.0000 0.74046  0.12200  0.78536  Biso   1.000  O 
  O4       1.0000 0.25954  0.12200  0.28536  Biso   1.000  O 
  O5       1.0000 0.24046  0.37800  0.71464  Biso   1.000  O 
  O6       1.0000 0.24046  0.62200  0.78536  Biso   1.000  O 
  O7       1.0000 0.75954  0.62200  0.28536  Biso   1.000  O 
  O8       1.0000 0.75954  0.37800  0.21464  Biso   1.000  O 
  O9       1.0000 0.16499  0.59080  0.10044  Biso   1.000  O 
  O10      1.0000 0.83501  0.59080  0.60044  Biso   1.000  O 
  O11      1.0000 0.83501  0.40920  0.89956  Biso   1.000  O 
  O12      1.0000 0.16499  0.40920  0.39956  Biso   1.000  O 
  O13      1.0000 0.33501  0.09080  0.60044  Biso   1.000  O 
  O14      1.0000 0.33501  0.90920  0.89956  Biso   1.000  O 
  O15      1.0000 0.66499  0.90920  0.39956  Biso   1.000  O 
  O16      1.0000 0.66499  0.09080  0.10044  Biso   1.000  O 
