data_image0
_cell_length_a       11.1855
_cell_length_b       6.42019
_cell_length_c       6.5814
_cell_angle_alpha    71.7521
_cell_angle_beta     90
_cell_angle_gamma    90

_symmetry_space_group_name_H-M    "P 1"
_symmetry_int_tables_number       1

loop_
  _symmetry_equiv_pos_as_xyz
  'x, y, z'

loop_
  _atom_site_label
  _atom_site_occupancy
  _atom_site_fract_x
  _atom_site_fract_y
  _atom_site_fract_z
  _atom_site_thermal_displace_type
  _atom_site_B_iso_or_equiv
  _atom_site_type_symbol
  Sn1      1.0000 0.25000  0.30754  0.95914  Biso   1.000  Sn
  Sn2      1.0000 0.75000  0.69246  0.04086  Biso   1.000  Sn
  Ag1      1.0000 0.25000  0.92239  0.32720  Biso   1.000  Ag
  Ag2      1.0000 0.75000  0.07761  0.67280  Biso   1.000  Ag
  Ag3      1.0000 0.39798  0.30996  0.31661  Biso   1.000  Ag
  Ag4      1.0000 0.89798  0.69004  0.68339  Biso   1.000  Ag
  Ag5      1.0000 0.60202  0.69004  0.68339  Biso   1.000  Ag
  Ag6      1.0000 0.10202  0.30996  0.31661  Biso   1.000  Ag
  P1       1.0000 0.41970  0.83336  0.84178  Biso   1.000  P 
  P2       1.0000 0.91970  0.16664  0.15822  Biso   1.000  P 
  P3       1.0000 0.58030  0.16664  0.15822  Biso   1.000  P 
  P4       1.0000 0.08030  0.83336  0.84178  Biso   1.000  P 
  P5       1.0000 0.41061  0.72198  0.19505  Biso   1.000  P 
  P6       1.0000 0.91061  0.27802  0.80495  Biso   1.000  P 
  P7       1.0000 0.58939  0.27802  0.80495  Biso   1.000  P 
  P8       1.0000 0.08939  0.72198  0.19505  Biso   1.000  P 
  P9       1.0000 0.41003  0.19525  0.71651  Biso   1.000  P 
  P10      1.0000 0.91003  0.80475  0.28349  Biso   1.000  P 
  P11      1.0000 0.58997  0.80475  0.28349  Biso   1.000  P 
  P12      1.0000 0.08997  0.19525  0.71651  Biso   1.000  P 
  P13      1.0000 0.25000  0.73199  0.72633  Biso   1.000  P 
  P14      1.0000 0.75000  0.26801  0.27367  Biso   1.000  P 
