data_image0
_cell_length_a       9.01128
_cell_length_b       9.01128
_cell_length_c       9.01128
_cell_angle_alpha    109.471
_cell_angle_beta     109.471
_cell_angle_gamma    109.471

_symmetry_space_group_name_H-M    "P 1"
_symmetry_int_tables_number       1

loop_
  _symmetry_equiv_pos_as_xyz
  'x, y, z'

loop_
  _atom_site_label
  _atom_site_occupancy
  _atom_site_fract_x
  _atom_site_fract_y
  _atom_site_fract_z
  _atom_site_thermal_displace_type
  _atom_site_B_iso_or_equiv
  _atom_site_type_symbol
  Ag1      1.0000 0.19863  0.19863  0.00000  Biso   1.000  Ag
  Ag2      1.0000 0.80137  0.00000  0.80137  Biso   1.000  Ag
  Ag3      1.0000 0.00000  0.80137  0.80137  Biso   1.000  Ag
  Ag4      1.0000 0.80137  0.80137  0.00000  Biso   1.000  Ag
  Ag5      1.0000 0.19863  0.00000  0.19863  Biso   1.000  Ag
  Ag6      1.0000 0.00000  0.19863  0.19863  Biso   1.000  Ag
  Sn1      1.0000 0.00000  0.00000  0.40697  Biso   1.000  Sn
  Sn2      1.0000 0.00000  0.40697  0.00000  Biso   1.000  Sn
  Sn3      1.0000 0.40697  0.00000  0.00000  Biso   1.000  Sn
  Sn4      1.0000 0.59303  0.59303  0.59303  Biso   1.000  Sn
  Si1      1.0000 0.75000  0.25000  0.50000  Biso   1.000  Si
  Si2      1.0000 0.75000  0.50000  0.25000  Biso   1.000  Si
  Si3      1.0000 0.50000  0.25000  0.75000  Biso   1.000  Si
  Si4      1.0000 0.25000  0.50000  0.75000  Biso   1.000  Si
  Si5      1.0000 0.25000  0.75000  0.50000  Biso   1.000  Si
  Si6      1.0000 0.50000  0.75000  0.25000  Biso   1.000  Si
  P1       1.0000 0.00000  0.75404  0.50277  Biso   1.000  P 
  P2       1.0000 0.24596  0.24596  0.74873  Biso   1.000  P 
  P3       1.0000 0.75404  0.00000  0.50277  Biso   1.000  P 
  P4       1.0000 0.00000  0.50277  0.75404  Biso   1.000  P 
  P5       1.0000 0.75404  0.50277  0.00000  Biso   1.000  P 
  P6       1.0000 0.24596  0.74873  0.24596  Biso   1.000  P 
  P7       1.0000 0.74873  0.24596  0.24596  Biso   1.000  P 
  P8       1.0000 0.50277  0.75404  0.00000  Biso   1.000  P 
  P9       1.0000 0.50277  0.00000  0.75404  Biso   1.000  P 
  P10      1.0000 0.25127  0.49723  0.49723  Biso   1.000  P 
  P11      1.0000 0.49723  0.49723  0.25127  Biso   1.000  P 
  P12      1.0000 0.49723  0.25127  0.49723  Biso   1.000  P 
