data_image0
_cell_length_a       9.75449
_cell_length_b       9.75449
_cell_length_c       9.46536
_cell_angle_alpha    60.9146
_cell_angle_beta     60.9146
_cell_angle_gamma    57.0241

_symmetry_space_group_name_H-M    "P 1"
_symmetry_int_tables_number       1

loop_
  _symmetry_equiv_pos_as_xyz
  'x, y, z'

loop_
  _atom_site_label
  _atom_site_occupancy
  _atom_site_fract_x
  _atom_site_fract_y
  _atom_site_fract_z
  _atom_site_thermal_displace_type
  _atom_site_B_iso_or_equiv
  _atom_site_type_symbol
  Y1       1.0000 0.03471  0.96529  0.25000  Biso   1.000  Y 
  Y2       1.0000 0.96529  0.03471  0.75000  Biso   1.000  Y 
  Ag1      1.0000 0.76720  0.53664  0.22515  Biso   1.000  Ag
  Ag2      1.0000 0.46336  0.23280  0.27485  Biso   1.000  Ag
  Ag3      1.0000 0.23280  0.46336  0.77485  Biso   1.000  Ag
  Ag4      1.0000 0.53664  0.76720  0.72515  Biso   1.000  Ag
  Ag5      1.0000 0.43052  0.56948  0.25000  Biso   1.000  Ag
  Ag6      1.0000 0.56948  0.43052  0.75000  Biso   1.000  Ag
  P1       1.0000 0.85530  0.33992  0.93256  Biso   1.000  P 
  P2       1.0000 0.66008  0.14470  0.56744  Biso   1.000  P 
  P3       1.0000 0.14470  0.66008  0.06744  Biso   1.000  P 
  P4       1.0000 0.33992  0.85530  0.43256  Biso   1.000  P 
  S1       1.0000 0.86608  0.21835  0.41833  Biso   1.000  S 
  S2       1.0000 0.78165  0.13392  0.08167  Biso   1.000  S 
  S3       1.0000 0.13392  0.78165  0.58167  Biso   1.000  S 
  S4       1.0000 0.21835  0.86608  0.91833  Biso   1.000  S 
  S5       1.0000 0.89687  0.37147  0.68671  Biso   1.000  S 
  S6       1.0000 0.62853  0.10313  0.81329  Biso   1.000  S 
  S7       1.0000 0.10313  0.62853  0.31329  Biso   1.000  S 
  S8       1.0000 0.37147  0.89687  0.18671  Biso   1.000  S 
  S9       1.0000 0.07517  0.26067  0.97937  Biso   1.000  S 
  S10      1.0000 0.73933  0.92483  0.52063  Biso   1.000  S 
  S11      1.0000 0.92483  0.73933  0.02063  Biso   1.000  S 
  S12      1.0000 0.26067  0.07517  0.47937  Biso   1.000  S 
  S13      1.0000 0.32150  0.42758  0.02277  Biso   1.000  S 
  S14      1.0000 0.57242  0.67850  0.47723  Biso   1.000  S 
  S15      1.0000 0.67850  0.57242  0.97723  Biso   1.000  S 
  S16      1.0000 0.42758  0.32150  0.52277  Biso   1.000  S 
