data_image0
_cell_length_a       6.55889
_cell_length_b       6.91549
_cell_length_c       7.68029
_cell_angle_alpha    90
_cell_angle_beta     90
_cell_angle_gamma    90

_symmetry_space_group_name_H-M    "P 1"
_symmetry_int_tables_number       1

loop_
  _symmetry_equiv_pos_as_xyz
  'x, y, z'

loop_
  _atom_site_label
  _atom_site_occupancy
  _atom_site_fract_x
  _atom_site_fract_y
  _atom_site_fract_z
  _atom_site_thermal_displace_type
  _atom_site_B_iso_or_equiv
  _atom_site_type_symbol
  Ag1      1.0000 0.62230  0.35113  0.50000  Biso   1.000  Ag
  Ag2      1.0000 0.12230  0.64887  0.00000  Biso   1.000  Ag
  Ag3      1.0000 0.57083  0.80332  0.22668  Biso   1.000  Ag
  Ag4      1.0000 0.57083  0.80332  0.77332  Biso   1.000  Ag
  Ag5      1.0000 0.07083  0.19668  0.27332  Biso   1.000  Ag
  Ag6      1.0000 0.07083  0.19668  0.72668  Biso   1.000  Ag
  P1       1.0000 0.09333  0.68934  0.50000  Biso   1.000  P 
  P2       1.0000 0.59333  0.31066  0.00000  Biso   1.000  P 
  S1       1.0000 0.77834  0.68966  0.50000  Biso   1.000  S 
  S2       1.0000 0.27834  0.31034  0.00000  Biso   1.000  S 
  S3       1.0000 0.22476  0.41610  0.50000  Biso   1.000  S 
  S4       1.0000 0.72476  0.58390  0.00000  Biso   1.000  S 
  S5       1.0000 0.69335  0.16052  0.21942  Biso   1.000  S 
  S6       1.0000 0.69335  0.16052  0.78058  Biso   1.000  S 
  S7       1.0000 0.19335  0.83948  0.28058  Biso   1.000  S 
  S8       1.0000 0.19335  0.83948  0.71942  Biso   1.000  S 
