data_image0
_cell_length_a       8.62856
_cell_length_b       8.62856
_cell_length_c       8.87356
_cell_angle_alpha    67.0711
_cell_angle_beta     67.0711
_cell_angle_gamma    29.6738

_symmetry_space_group_name_H-M    "P 1"
_symmetry_int_tables_number       1

loop_
  _symmetry_equiv_pos_as_xyz
  'x, y, z'

loop_
  _atom_site_label
  _atom_site_occupancy
  _atom_site_fract_x
  _atom_site_fract_y
  _atom_site_fract_z
  _atom_site_thermal_displace_type
  _atom_site_B_iso_or_equiv
  _atom_site_type_symbol
  Rb1      1.0000 0.86210  0.86210  0.04857  Biso   1.000  Rb
  Rb2      1.0000 0.13790  0.13790  0.95143  Biso   1.000  Rb
  Ag1      1.0000 0.40937  0.40937  0.64421  Biso   1.000  Ag
  Ag2      1.0000 0.59063  0.59063  0.35579  Biso   1.000  Ag
  Ag3      1.0000 0.31216  0.31216  0.43575  Biso   1.000  Ag
  Ag4      1.0000 0.68784  0.68784  0.56425  Biso   1.000  Ag
  Ag5      1.0000 0.94302  0.94302  0.40207  Biso   1.000  Ag
  Ag6      1.0000 0.05698  0.05698  0.59793  Biso   1.000  Ag
  Se1      1.0000 0.80081  0.80081  0.70148  Biso   1.000  Se
  Se2      1.0000 0.19919  0.19919  0.29852  Biso   1.000  Se
  Se3      1.0000 0.48112  0.48112  0.21225  Biso   1.000  Se
  Se4      1.0000 0.51888  0.51888  0.78775  Biso   1.000  Se
