data_image0
_cell_length_a       8.35572
_cell_length_b       8.35572
_cell_length_c       9.00898
_cell_angle_alpha    65.8136
_cell_angle_beta     65.8136
_cell_angle_gamma    30.2998

_symmetry_space_group_name_H-M    "P 1"
_symmetry_int_tables_number       1

loop_
  _symmetry_equiv_pos_as_xyz
  'x, y, z'

loop_
  _atom_site_label
  _atom_site_occupancy
  _atom_site_fract_x
  _atom_site_fract_y
  _atom_site_fract_z
  _atom_site_thermal_displace_type
  _atom_site_B_iso_or_equiv
  _atom_site_type_symbol
  Rb1      1.0000 0.86568  0.86568  0.03962  Biso   1.000  Rb
  Rb2      1.0000 0.13432  0.13432  0.96038  Biso   1.000  Rb
  Ag1      1.0000 0.40317  0.40317  0.64723  Biso   1.000  Ag
  Ag2      1.0000 0.59683  0.59683  0.35277  Biso   1.000  Ag
  Ag3      1.0000 0.31183  0.31183  0.40242  Biso   1.000  Ag
  Ag4      1.0000 0.68817  0.68817  0.59758  Biso   1.000  Ag
  Ag5      1.0000 0.93826  0.93826  0.40473  Biso   1.000  Ag
  Ag6      1.0000 0.06174  0.06174  0.59527  Biso   1.000  Ag
  S1       1.0000 0.80490  0.80490  0.70337  Biso   1.000  S 
  S2       1.0000 0.19510  0.19510  0.29663  Biso   1.000  S 
  S3       1.0000 0.48203  0.48203  0.22754  Biso   1.000  S 
  S4       1.0000 0.51797  0.51797  0.77246  Biso   1.000  S 
