data_image0
_cell_length_a       7.07821
_cell_length_b       7.07821
_cell_length_c       7.07821
_cell_angle_alpha    101.405
_cell_angle_beta     101.405
_cell_angle_gamma    101.405

_symmetry_space_group_name_H-M    "P 1"
_symmetry_int_tables_number       1

loop_
  _symmetry_equiv_pos_as_xyz
  'x, y, z'

loop_
  _atom_site_label
  _atom_site_occupancy
  _atom_site_fract_x
  _atom_site_fract_y
  _atom_site_fract_z
  _atom_site_thermal_displace_type
  _atom_site_B_iso_or_equiv
  _atom_site_type_symbol
  Sb1      1.0000 0.50396  0.50396  0.50396  Biso   1.000  Sb
  Sb2      1.0000 0.00396  0.00396  0.00396  Biso   1.000  Sb
  Ag1      1.0000 0.74721  0.95401  0.41685  Biso   1.000  Ag
  Ag2      1.0000 0.95401  0.41685  0.74721  Biso   1.000  Ag
  Ag3      1.0000 0.41685  0.74721  0.95401  Biso   1.000  Ag
  Ag4      1.0000 0.24721  0.91685  0.45401  Biso   1.000  Ag
  Ag5      1.0000 0.91685  0.45401  0.24721  Biso   1.000  Ag
  Ag6      1.0000 0.45401  0.24721  0.91685  Biso   1.000  Ag
  S1       1.0000 0.75467  0.09988  0.76132  Biso   1.000  S 
  S2       1.0000 0.09988  0.76132  0.75467  Biso   1.000  S 
  S3       1.0000 0.76132  0.75467  0.09988  Biso   1.000  S 
  S4       1.0000 0.25467  0.26132  0.59988  Biso   1.000  S 
  S5       1.0000 0.26132  0.59988  0.25467  Biso   1.000  S 
  S6       1.0000 0.59988  0.25467  0.26132  Biso   1.000  S 
