data_image0
_cell_length_a       6.56146
_cell_length_b       8.71026
_cell_length_c       10.1374
_cell_angle_alpha    107.49
_cell_angle_beta     93.3191
_cell_angle_gamma    93.7545

_symmetry_space_group_name_H-M    "P 1"
_symmetry_int_tables_number       1

loop_
  _symmetry_equiv_pos_as_xyz
  'x, y, z'

loop_
  _atom_site_label
  _atom_site_occupancy
  _atom_site_fract_x
  _atom_site_fract_y
  _atom_site_fract_z
  _atom_site_thermal_displace_type
  _atom_site_B_iso_or_equiv
  _atom_site_type_symbol
  Ag1      1.0000 0.98105  0.98823  0.74592  Biso   1.000  Ag
  Ag2      1.0000 0.01895  0.01177  0.25408  Biso   1.000  Ag
  Ag3      1.0000 0.56210  0.38154  0.33106  Biso   1.000  Ag
  Ag4      1.0000 0.43790  0.61846  0.66894  Biso   1.000  Ag
  Ag5      1.0000 0.50725  0.02739  0.25618  Biso   1.000  Ag
  Ag6      1.0000 0.49275  0.97261  0.74382  Biso   1.000  Ag
  Ag7      1.0000 0.94492  0.64517  0.63933  Biso   1.000  Ag
  Ag8      1.0000 0.05508  0.35483  0.36067  Biso   1.000  Ag
  Ag9      1.0000 0.76666  0.17020  0.09681  Biso   1.000  Ag
  Ag10     1.0000 0.23334  0.82980  0.90319  Biso   1.000  Ag
  Ag11     1.0000 0.95174  0.58074  0.14152  Biso   1.000  Ag
  Ag12     1.0000 0.04826  0.41926  0.85848  Biso   1.000  Ag
  Ag13     1.0000 0.69696  0.81929  0.47907  Biso   1.000  Ag
  Ag14     1.0000 0.30304  0.18071  0.52093  Biso   1.000  Ag
  Ag15     1.0000 0.52975  0.35765  0.83012  Biso   1.000  Ag
  Ag16     1.0000 0.47025  0.64235  0.16988  Biso   1.000  Ag
  Ge1      1.0000 0.78476  0.22944  0.55982  Biso   1.000  Ge
  Ge2      1.0000 0.21524  0.77056  0.44018  Biso   1.000  Ge
  Ge3      1.0000 0.73134  0.75673  0.94212  Biso   1.000  Ge
  Ge4      1.0000 0.26866  0.24327  0.05788  Biso   1.000  Ge
  O1       1.0000 0.97176  0.65463  0.43040  Biso   1.000  O 
  O2       1.0000 0.02824  0.34537  0.56960  Biso   1.000  O 
  O3       1.0000 0.75816  0.18806  0.72179  Biso   1.000  O 
  O4       1.0000 0.24184  0.81194  0.27821  Biso   1.000  O 
  O5       1.0000 0.78094  0.78280  0.12396  Biso   1.000  O 
  O6       1.0000 0.21906  0.21720  0.87604  Biso   1.000  O 
  O7       1.0000 0.93508  0.64687  0.85113  Biso   1.000  O 
  O8       1.0000 0.06492  0.35313  0.14887  Biso   1.000  O 
  O9       1.0000 0.72904  0.94710  0.90474  Biso   1.000  O 
  O10      1.0000 0.27096  0.05290  0.09526  Biso   1.000  O 
  O11      1.0000 0.58583  0.35725  0.53621  Biso   1.000  O 
  O12      1.0000 0.41417  0.64275  0.46379  Biso   1.000  O 
  O13      1.0000 0.76620  0.04403  0.41506  Biso   1.000  O 
  O14      1.0000 0.23380  0.95597  0.58494  Biso   1.000  O 
  O15      1.0000 0.51202  0.36573  0.11222  Biso   1.000  O 
  O16      1.0000 0.48798  0.63427  0.88778  Biso   1.000  O 
