data_image0
_cell_length_a       9.55198
_cell_length_b       9.55198
_cell_length_c       10.5529
_cell_angle_alpha    87.7282
_cell_angle_beta     87.7282
_cell_angle_gamma    42.7399

_symmetry_space_group_name_H-M    "P 1"
_symmetry_int_tables_number       1

loop_
  _symmetry_equiv_pos_as_xyz
  'x, y, z'

loop_
  _atom_site_label
  _atom_site_occupancy
  _atom_site_fract_x
  _atom_site_fract_y
  _atom_site_fract_z
  _atom_site_thermal_displace_type
  _atom_site_B_iso_or_equiv
  _atom_site_type_symbol
  Ag1      1.0000 0.81992  0.16943  0.49700  Biso   1.000  Ag
  Ag2      1.0000 0.16943  0.81992  0.99700  Biso   1.000  Ag
  Ag3      1.0000 0.74634  0.38646  0.11699  Biso   1.000  Ag
  Ag4      1.0000 0.38646  0.74634  0.61699  Biso   1.000  Ag
  Ag5      1.0000 0.91072  0.50583  0.40483  Biso   1.000  Ag
  Ag6      1.0000 0.50583  0.91072  0.90483  Biso   1.000  Ag
  Ag7      1.0000 0.15734  0.40183  0.04691  Biso   1.000  Ag
  Ag8      1.0000 0.40183  0.15734  0.54691  Biso   1.000  Ag
  Hg1      1.0000 0.66630  0.03102  0.22152  Biso   1.000  Hg
  Hg2      1.0000 0.03102  0.66630  0.72152  Biso   1.000  Hg
  Ge1      1.0000 0.25220  0.60293  0.32920  Biso   1.000  Ge
  Ge2      1.0000 0.60293  0.25220  0.82920  Biso   1.000  Ge
  Ge3      1.0000 0.31539  0.95972  0.25624  Biso   1.000  Ge
  Ge4      1.0000 0.95972  0.31539  0.75624  Biso   1.000  Ge
  S1       1.0000 0.86661  0.19750  0.90473  Biso   1.000  S 
  S2       1.0000 0.19750  0.86661  0.40473  Biso   1.000  S 
  S3       1.0000 0.04652  0.29398  0.21060  Biso   1.000  S 
  S4       1.0000 0.29398  0.04652  0.71060  Biso   1.000  S 
  S5       1.0000 0.55997  0.89913  0.36305  Biso   1.000  S 
  S6       1.0000 0.89913  0.55997  0.86305  Biso   1.000  S 
  S7       1.0000 0.13575  0.53537  0.48271  Biso   1.000  S 
  S8       1.0000 0.53537  0.13575  0.98271  Biso   1.000  S 
  S9       1.0000 0.06065  0.70994  0.15593  Biso   1.000  S 
  S10      1.0000 0.70994  0.06065  0.65593  Biso   1.000  S 
  S11      1.0000 0.33183  0.59699  0.79359  Biso   1.000  S 
  S12      1.0000 0.59699  0.33183  0.29359  Biso   1.000  S 
  S13      1.0000 0.44417  0.77436  0.08130  Biso   1.000  S 
  S14      1.0000 0.77436  0.44417  0.58130  Biso   1.000  S 
