data_image0
_cell_length_a       6.85546
_cell_length_b       9.31693
_cell_length_c       11.2564
_cell_angle_alpha    71.2596
_cell_angle_beta     90
_cell_angle_gamma    90

_symmetry_space_group_name_H-M    "P 1"
_symmetry_int_tables_number       1

loop_
  _symmetry_equiv_pos_as_xyz
  'x, y, z'

loop_
  _atom_site_label
  _atom_site_occupancy
  _atom_site_fract_x
  _atom_site_fract_y
  _atom_site_fract_z
  _atom_site_thermal_displace_type
  _atom_site_B_iso_or_equiv
  _atom_site_type_symbol
  I1       1.0000 0.25000  0.90167  0.02831  Biso   1.000  I 
  I2       1.0000 0.75000  0.09833  0.97169  Biso   1.000  I 
  I3       1.0000 0.25000  0.95376  0.56992  Biso   1.000  I 
  I4       1.0000 0.75000  0.04624  0.43008  Biso   1.000  I 
  Ag1      1.0000 0.25000  0.61636  0.30920  Biso   1.000  Ag
  Ag2      1.0000 0.75000  0.38364  0.69080  Biso   1.000  Ag
  Ag3      1.0000 0.25000  0.68607  0.77501  Biso   1.000  Ag
  Ag4      1.0000 0.75000  0.31393  0.22499  Biso   1.000  Ag
  Ag5      1.0000 0.46275  0.64108  0.07719  Biso   1.000  Ag
  Ag6      1.0000 0.96275  0.35892  0.92281  Biso   1.000  Ag
  Ag7      1.0000 0.53725  0.35892  0.92281  Biso   1.000  Ag
  Ag8      1.0000 0.03725  0.64108  0.07719  Biso   1.000  Ag
  Ag9      1.0000 0.47531  0.71166  0.53969  Biso   1.000  Ag
  Ag10     1.0000 0.97531  0.28834  0.46031  Biso   1.000  Ag
  Ag11     1.0000 0.52469  0.28834  0.46031  Biso   1.000  Ag
  Ag12     1.0000 0.02469  0.71166  0.53969  Biso   1.000  Ag
  Ag13     1.0000 0.45946  0.99205  0.78506  Biso   1.000  Ag
  Ag14     1.0000 0.95946  0.00795  0.21494  Biso   1.000  Ag
  Ag15     1.0000 0.54054  0.00795  0.21494  Biso   1.000  Ag
  Ag16     1.0000 0.04054  0.99205  0.78506  Biso   1.000  Ag
  P1       1.0000 0.25000  0.36191  0.67498  Biso   1.000  P 
  P2       1.0000 0.75000  0.63809  0.32502  Biso   1.000  P 
  P3       1.0000 0.25000  0.30502  0.20152  Biso   1.000  P 
  P4       1.0000 0.75000  0.69498  0.79848  Biso   1.000  P 
  O1       1.0000 0.25000  0.34549  0.32689  Biso   1.000  O 
  O2       1.0000 0.75000  0.65451  0.67311  Biso   1.000  O 
  O3       1.0000 0.25000  0.50413  0.55524  Biso   1.000  O 
  O4       1.0000 0.75000  0.49587  0.44476  Biso   1.000  O 
  O5       1.0000 0.25000  0.40860  0.79700  Biso   1.000  O 
  O6       1.0000 0.75000  0.59140  0.20300  Biso   1.000  O 
  O7       1.0000 0.25000  0.13092  0.22764  Biso   1.000  O 
  O8       1.0000 0.75000  0.86908  0.77236  Biso   1.000  O 
  O9       1.0000 0.56196  0.73506  0.32618  Biso   1.000  O 
  O10      1.0000 0.06196  0.26494  0.67382  Biso   1.000  O 
  O11      1.0000 0.43804  0.26494  0.67382  Biso   1.000  O 
  O12      1.0000 0.93804  0.73506  0.32618  Biso   1.000  O 
  O13      1.0000 0.43715  0.37593  0.12483  Biso   1.000  O 
  O14      1.0000 0.93715  0.62407  0.87517  Biso   1.000  O 
  O15      1.0000 0.56285  0.62407  0.87517  Biso   1.000  O 
  O16      1.0000 0.06285  0.37593  0.12483  Biso   1.000  O 
