data_image0
_cell_length_a       9.16246
_cell_length_b       9.16246
_cell_length_c       11.74
_cell_angle_alpha    71.9959
_cell_angle_beta     71.9959
_cell_angle_gamma    27.084

_symmetry_space_group_name_H-M    "P 1"
_symmetry_int_tables_number       1

loop_
  _symmetry_equiv_pos_as_xyz
  'x, y, z'

loop_
  _atom_site_label
  _atom_site_occupancy
  _atom_site_fract_x
  _atom_site_fract_y
  _atom_site_fract_z
  _atom_site_thermal_displace_type
  _atom_site_B_iso_or_equiv
  _atom_site_type_symbol
  K1       1.0000 0.66777  0.66777  0.15898  Biso   1.000  K 
  K2       1.0000 0.33223  0.33223  0.84102  Biso   1.000  K 
  K3       1.0000 0.81345  0.81345  0.34274  Biso   1.000  K 
  K4       1.0000 0.18655  0.18655  0.65726  Biso   1.000  K 
  Ag1      1.0000 0.98578  0.98578  0.87847  Biso   1.000  Ag
  Ag2      1.0000 0.01422  0.01422  0.12153  Biso   1.000  Ag
  Ag3      1.0000 0.97793  0.97793  0.63332  Biso   1.000  Ag
  Ag4      1.0000 0.02207  0.02207  0.36668  Biso   1.000  Ag
  Ag5      1.0000 0.41055  0.41055  0.08602  Biso   1.000  Ag
  Ag6      1.0000 0.58945  0.58945  0.91398  Biso   1.000  Ag
  Ag7      1.0000 0.40852  0.40852  0.51040  Biso   1.000  Ag
  Ag8      1.0000 0.59148  0.59148  0.48960  Biso   1.000  Ag
  S1       1.0000 0.85500  0.85500  0.04156  Biso   1.000  S 
  S2       1.0000 0.14500  0.14500  0.95843  Biso   1.000  S 
  S3       1.0000 0.84025  0.84025  0.61311  Biso   1.000  S 
  S4       1.0000 0.15975  0.15975  0.38689  Biso   1.000  S 
  S5       1.0000 0.53390  0.53390  0.72497  Biso   1.000  S 
  S6       1.0000 0.46610  0.46610  0.27503  Biso   1.000  S 
