data_image0
_cell_length_a       5.96866
_cell_length_b       9.0954
_cell_length_c       10.2232
_cell_angle_alpha    90
_cell_angle_beta     90
_cell_angle_gamma    90

_symmetry_space_group_name_H-M    "P 1"
_symmetry_int_tables_number       1

loop_
  _symmetry_equiv_pos_as_xyz
  'x, y, z'

loop_
  _atom_site_label
  _atom_site_occupancy
  _atom_site_fract_x
  _atom_site_fract_y
  _atom_site_fract_z
  _atom_site_thermal_displace_type
  _atom_site_B_iso_or_equiv
  _atom_site_type_symbol
  Ag1      1.0000 0.06861  0.53356  0.35135  Biso   1.000  Ag
  Ag2      1.0000 0.93139  0.03356  0.64865  Biso   1.000  Ag
  Ag3      1.0000 0.56861  0.03356  0.14865  Biso   1.000  Ag
  Ag4      1.0000 0.43139  0.53356  0.85135  Biso   1.000  Ag
  Ag5      1.0000 0.31306  0.76823  0.06248  Biso   1.000  Ag
  Ag6      1.0000 0.68694  0.26823  0.93752  Biso   1.000  Ag
  Ag7      1.0000 0.81306  0.26823  0.43752  Biso   1.000  Ag
  Ag8      1.0000 0.18694  0.76823  0.56248  Biso   1.000  Ag
  Ag9      1.0000 0.93424  0.52815  0.07622  Biso   1.000  Ag
  Ag10     1.0000 0.06576  0.02815  0.92378  Biso   1.000  Ag
  Ag11     1.0000 0.43424  0.02815  0.42378  Biso   1.000  Ag
  Ag12     1.0000 0.56576  0.52815  0.57622  Biso   1.000  Ag
  Ag13     1.0000 0.46269  0.72668  0.33785  Biso   1.000  Ag
  Ag14     1.0000 0.53731  0.22668  0.66215  Biso   1.000  Ag
  Ag15     1.0000 0.96269  0.22668  0.16215  Biso   1.000  Ag
  Ag16     1.0000 0.03731  0.72668  0.83785  Biso   1.000  Ag
  S1       1.0000 0.44493  0.44501  0.15782  Biso   1.000  S 
  S2       1.0000 0.55507  0.94501  0.84218  Biso   1.000  S 
  S3       1.0000 0.94493  0.94501  0.34218  Biso   1.000  S 
  S4       1.0000 0.05507  0.44501  0.65782  Biso   1.000  S 
  O1       1.0000 0.33859  0.29569  0.15405  Biso   1.000  O 
  O2       1.0000 0.66141  0.79569  0.84595  Biso   1.000  O 
  O3       1.0000 0.83859  0.79569  0.34595  Biso   1.000  O 
  O4       1.0000 0.16141  0.29569  0.65405  Biso   1.000  O 
  O5       1.0000 0.58730  0.46110  0.27706  Biso   1.000  O 
  O6       1.0000 0.41270  0.96110  0.72294  Biso   1.000  O 
  O7       1.0000 0.08730  0.96110  0.22294  Biso   1.000  O 
  O8       1.0000 0.91270  0.46110  0.77706  Biso   1.000  O 
  N1       1.0000 0.25077  0.57096  0.16795  Biso   1.000  N 
  N2       1.0000 0.74923  0.07096  0.83205  Biso   1.000  N 
  N3       1.0000 0.75077  0.07096  0.33205  Biso   1.000  N 
  N4       1.0000 0.24923  0.57096  0.66795  Biso   1.000  N 
  N5       1.0000 0.59724  0.47162  0.02942  Biso   1.000  N 
  N6       1.0000 0.40276  0.97162  0.97058  Biso   1.000  N 
  N7       1.0000 0.09724  0.97162  0.47058  Biso   1.000  N 
  N8       1.0000 0.90276  0.47162  0.52942  Biso   1.000  N 
