data_image0
_cell_length_a       8.83942
_cell_length_b       8.83942
_cell_length_c       8.83942
_cell_angle_alpha    90
_cell_angle_beta     90
_cell_angle_gamma    90

_symmetry_space_group_name_H-M    "P 1"
_symmetry_int_tables_number       1

loop_
  _symmetry_equiv_pos_as_xyz
  'x, y, z'

loop_
  _atom_site_label
  _atom_site_occupancy
  _atom_site_fract_x
  _atom_site_fract_y
  _atom_site_fract_z
  _atom_site_thermal_displace_type
  _atom_site_B_iso_or_equiv
  _atom_site_type_symbol
  Te1      1.0000 0.82378  0.32378  0.17622  Biso   1.000  Te
  Te2      1.0000 0.32378  0.17622  0.82378  Biso   1.000  Te
  Te3      1.0000 0.17622  0.82378  0.32378  Biso   1.000  Te
  Te4      1.0000 0.67622  0.67622  0.67622  Biso   1.000  Te
  Ag1      1.0000 0.50845  0.00845  0.49155  Biso   1.000  Ag
  Ag2      1.0000 0.00845  0.49155  0.50845  Biso   1.000  Ag
  Ag3      1.0000 0.49155  0.50845  0.00845  Biso   1.000  Ag
  Ag4      1.0000 0.99155  0.99155  0.99155  Biso   1.000  Ag
  Ag5      1.0000 0.20927  0.97529  0.59865  Biso   1.000  Ag
  Ag6      1.0000 0.40135  0.70927  0.52471  Biso   1.000  Ag
  Ag7      1.0000 0.47529  0.90135  0.79073  Biso   1.000  Ag
  Ag8      1.0000 0.70927  0.52471  0.40135  Biso   1.000  Ag
  Ag9      1.0000 0.90135  0.79073  0.47529  Biso   1.000  Ag
  Ag10     1.0000 0.97529  0.59865  0.20927  Biso   1.000  Ag
  Ag11     1.0000 0.79073  0.47529  0.90135  Biso   1.000  Ag
  Ag12     1.0000 0.59865  0.20927  0.97529  Biso   1.000  Ag
  Ag13     1.0000 0.52471  0.40135  0.70927  Biso   1.000  Ag
  Ag14     1.0000 0.29073  0.02471  0.09865  Biso   1.000  Ag
  Ag15     1.0000 0.09865  0.29073  0.02471  Biso   1.000  Ag
  Ag16     1.0000 0.02471  0.09865  0.29073  Biso   1.000  Ag
  S1       1.0000 0.12660  0.62660  0.87340  Biso   1.000  S 
  S2       1.0000 0.62660  0.87340  0.12660  Biso   1.000  S 
  S3       1.0000 0.87340  0.12660  0.62660  Biso   1.000  S 
  S4       1.0000 0.37340  0.37340  0.37340  Biso   1.000  S 
  O1       1.0000 0.01922  0.72084  0.96660  Biso   1.000  O 
  O2       1.0000 0.03340  0.51922  0.77916  Biso   1.000  O 
  O3       1.0000 0.22084  0.53340  0.98078  Biso   1.000  O 
  O4       1.0000 0.51922  0.77916  0.03340  Biso   1.000  O 
  O5       1.0000 0.53340  0.98078  0.22084  Biso   1.000  O 
  O6       1.0000 0.72084  0.96660  0.01922  Biso   1.000  O 
  O7       1.0000 0.98078  0.22084  0.53340  Biso   1.000  O 
  O8       1.0000 0.96660  0.01922  0.72084  Biso   1.000  O 
  O9       1.0000 0.77916  0.03340  0.51922  Biso   1.000  O 
  O10      1.0000 0.48078  0.27916  0.46660  Biso   1.000  O 
  O11      1.0000 0.46660  0.48078  0.27916  Biso   1.000  O 
  O12      1.0000 0.27916  0.46660  0.48078  Biso   1.000  O 
  O13      1.0000 0.22278  0.72278  0.77722  Biso   1.000  O 
  O14      1.0000 0.72278  0.77722  0.22278  Biso   1.000  O 
  O15      1.0000 0.77722  0.22278  0.72278  Biso   1.000  O 
  O16      1.0000 0.27722  0.27722  0.27722  Biso   1.000  O 
