data_image0
_cell_length_a       7.40943
_cell_length_b       7.40943
_cell_length_c       4.75116
_cell_angle_alpha    90
_cell_angle_beta     90
_cell_angle_gamma    90

_symmetry_space_group_name_H-M    "P 1"
_symmetry_int_tables_number       1

loop_
  _symmetry_equiv_pos_as_xyz
  'x, y, z'

loop_
  _atom_site_label
  _atom_site_occupancy
  _atom_site_fract_x
  _atom_site_fract_y
  _atom_site_fract_z
  _atom_site_thermal_displace_type
  _atom_site_B_iso_or_equiv
  _atom_site_type_symbol
  Ag1      1.0000 0.57563  0.35937  0.29459  Biso   1.000  Ag
  Ag2      1.0000 0.14063  0.57563  0.20541  Biso   1.000  Ag
  Ag3      1.0000 0.35937  0.92437  0.20541  Biso   1.000  Ag
  Ag4      1.0000 0.07563  0.85937  0.70541  Biso   1.000  Ag
  Ag5      1.0000 0.42437  0.64063  0.70541  Biso   1.000  Ag
  Ag6      1.0000 0.85937  0.42437  0.79459  Biso   1.000  Ag
  Ag7      1.0000 0.64063  0.07563  0.79459  Biso   1.000  Ag
  Ag8      1.0000 0.92437  0.14063  0.29459  Biso   1.000  Ag
  Si1      1.0000 0.75000  0.75000  0.25000  Biso   1.000  Si
  Si2      1.0000 0.25000  0.25000  0.75000  Biso   1.000  Si
  O1       1.0000 0.68384  0.57919  0.05282  Biso   1.000  O 
  O2       1.0000 0.92081  0.68384  0.44718  Biso   1.000  O 
  O3       1.0000 0.57919  0.81616  0.44718  Biso   1.000  O 
  O4       1.0000 0.18384  0.07919  0.94718  Biso   1.000  O 
  O5       1.0000 0.31616  0.42081  0.94718  Biso   1.000  O 
  O6       1.0000 0.07919  0.31616  0.55282  Biso   1.000  O 
  O7       1.0000 0.42081  0.18384  0.55282  Biso   1.000  O 
  O8       1.0000 0.81616  0.92081  0.05282  Biso   1.000  O 
