data_image0
_cell_length_a       8.71152
_cell_length_b       8.71152
_cell_length_c       11.8299
_cell_angle_alpha    76.4699
_cell_angle_beta     76.4699
_cell_angle_gamma    42.5213

_symmetry_space_group_name_H-M    "P 1"
_symmetry_int_tables_number       1

loop_
  _symmetry_equiv_pos_as_xyz
  'x, y, z'

loop_
  _atom_site_label
  _atom_site_occupancy
  _atom_site_fract_x
  _atom_site_fract_y
  _atom_site_fract_z
  _atom_site_thermal_displace_type
  _atom_site_B_iso_or_equiv
  _atom_site_type_symbol
  Ag1      1.0000 0.87042  0.28089  0.45156  Biso   1.000  Ag
  Ag2      1.0000 0.71911  0.12958  0.04844  Biso   1.000  Ag
  Ag3      1.0000 0.12958  0.71911  0.54844  Biso   1.000  Ag
  Ag4      1.0000 0.28089  0.87042  0.95156  Biso   1.000  Ag
  Ag5      1.0000 0.20078  0.22377  0.25826  Biso   1.000  Ag
  Ag6      1.0000 0.77623  0.79922  0.24174  Biso   1.000  Ag
  Ag7      1.0000 0.79922  0.77623  0.74174  Biso   1.000  Ag
  Ag8      1.0000 0.22377  0.20078  0.75826  Biso   1.000  Ag
  Ag9      1.0000 0.27723  0.55363  0.21929  Biso   1.000  Ag
  Ag10     1.0000 0.44637  0.72277  0.28071  Biso   1.000  Ag
  Ag11     1.0000 0.72277  0.44637  0.78071  Biso   1.000  Ag
  Ag12     1.0000 0.55363  0.27723  0.71929  Biso   1.000  Ag
  Ag13     1.0000 0.92742  0.07258  0.25000  Biso   1.000  Ag
  Ag14     1.0000 0.07258  0.92742  0.75000  Biso   1.000  Ag
  Ag15     1.0000 0.00000  0.50000  0.50000  Biso   1.000  Ag
  Ag16     1.0000 0.50000  0.00000  0.00000  Biso   1.000  Ag
  Te1      1.0000 0.85358  0.44014  0.02784  Biso   1.000  Te
  Te2      1.0000 0.55986  0.14642  0.47216  Biso   1.000  Te
  Te3      1.0000 0.14642  0.55986  0.97216  Biso   1.000  Te
  Te4      1.0000 0.44014  0.85358  0.52784  Biso   1.000  Te
  O1       1.0000 0.59863  0.53732  0.13220  Biso   1.000  O 
  O2       1.0000 0.46268  0.40137  0.36780  Biso   1.000  O 
  O3       1.0000 0.40137  0.46268  0.86780  Biso   1.000  O 
  O4       1.0000 0.53732  0.59863  0.63220  Biso   1.000  O 
  O5       1.0000 0.89464  0.24534  0.94169  Biso   1.000  O 
  O6       1.0000 0.75466  0.10536  0.55831  Biso   1.000  O 
  O7       1.0000 0.10536  0.75466  0.05831  Biso   1.000  O 
  O8       1.0000 0.24534  0.89464  0.44169  Biso   1.000  O 
  O9       1.0000 0.07585  0.17599  0.13380  Biso   1.000  O 
  O10      1.0000 0.82401  0.92415  0.36620  Biso   1.000  O 
  O11      1.0000 0.92415  0.82401  0.86620  Biso   1.000  O 
  O12      1.0000 0.17599  0.07585  0.63380  Biso   1.000  O 
  O13      1.0000 0.70492  0.64476  0.41526  Biso   1.000  O 
  O14      1.0000 0.35524  0.29508  0.08474  Biso   1.000  O 
  O15      1.0000 0.29508  0.35524  0.58474  Biso   1.000  O 
  O16      1.0000 0.64476  0.70492  0.91526  Biso   1.000  O 
  O17      1.0000 0.88198  0.62563  0.08456  Biso   1.000  O 
  O18      1.0000 0.37437  0.11802  0.41544  Biso   1.000  O 
  O19      1.0000 0.11802  0.37437  0.91544  Biso   1.000  O 
  O20      1.0000 0.62563  0.88198  0.58456  Biso   1.000  O 
