data_image0
_cell_length_a       6.3747
_cell_length_b       6.3747
_cell_length_c       16.4014
_cell_angle_alpha    76.5112
_cell_angle_beta     76.5112
_cell_angle_gamma    62.491

_symmetry_space_group_name_H-M    "P 1"
_symmetry_int_tables_number       1

loop_
  _symmetry_equiv_pos_as_xyz
  'x, y, z'

loop_
  _atom_site_label
  _atom_site_occupancy
  _atom_site_fract_x
  _atom_site_fract_y
  _atom_site_fract_z
  _atom_site_thermal_displace_type
  _atom_site_B_iso_or_equiv
  _atom_site_type_symbol
  Ag1      1.0000 0.55687  0.96172  0.16159  Biso   1.000  Ag
  Ag2      1.0000 0.03828  0.44313  0.33841  Biso   1.000  Ag
  Ag3      1.0000 0.44313  0.03828  0.83841  Biso   1.000  Ag
  Ag4      1.0000 0.96172  0.55687  0.66159  Biso   1.000  Ag
  Ag5      1.0000 0.26608  0.81820  0.44486  Biso   1.000  Ag
  Ag6      1.0000 0.18180  0.73392  0.05514  Biso   1.000  Ag
  Ag7      1.0000 0.73392  0.18180  0.55514  Biso   1.000  Ag
  Ag8      1.0000 0.81820  0.26608  0.94486  Biso   1.000  Ag
  P1       1.0000 0.71655  0.06596  0.35616  Biso   1.000  P 
  P2       1.0000 0.93404  0.28345  0.14383  Biso   1.000  P 
  P3       1.0000 0.28345  0.93404  0.64383  Biso   1.000  P 
  P4       1.0000 0.06596  0.71655  0.85617  Biso   1.000  P 
  S1       1.0000 0.23923  0.09972  0.06718  Biso   1.000  S 
  S2       1.0000 0.90028  0.76077  0.43282  Biso   1.000  S 
  S3       1.0000 0.76077  0.90028  0.93282  Biso   1.000  S 
  S4       1.0000 0.09972  0.23923  0.56718  Biso   1.000  S 
  S5       1.0000 0.42257  0.06012  0.32342  Biso   1.000  S 
  S6       1.0000 0.93988  0.57743  0.17658  Biso   1.000  S 
  S7       1.0000 0.57743  0.93988  0.67658  Biso   1.000  S 
  S8       1.0000 0.06012  0.42257  0.82342  Biso   1.000  S 
  S9       1.0000 0.64743  0.36496  0.40171  Biso   1.000  S 
  S10      1.0000 0.63504  0.35257  0.09829  Biso   1.000  S 
  S11      1.0000 0.35257  0.63504  0.59829  Biso   1.000  S 
  S12      1.0000 0.36496  0.64743  0.90171  Biso   1.000  S 
  S13      1.0000 0.99694  0.00306  0.25000  Biso   1.000  S 
  S14      1.0000 0.00306  0.99694  0.75000  Biso   1.000  S 
