data_image0
_cell_length_a       5.98583
_cell_length_b       9.08079
_cell_length_c       10.4931
_cell_angle_alpha    97.2889
_cell_angle_beta     92.4748
_cell_angle_gamma    92.5294

_symmetry_space_group_name_H-M    "P 1"
_symmetry_int_tables_number       1

loop_
  _symmetry_equiv_pos_as_xyz
  'x, y, z'

loop_
  _atom_site_label
  _atom_site_occupancy
  _atom_site_fract_x
  _atom_site_fract_y
  _atom_site_fract_z
  _atom_site_thermal_displace_type
  _atom_site_B_iso_or_equiv
  _atom_site_type_symbol
  Ag1      1.0000 0.56483  0.03426  0.17217  Biso   1.000  Ag
  Ag2      1.0000 0.43517  0.96574  0.82783  Biso   1.000  Ag
  Ag3      1.0000 0.25544  0.35543  0.13084  Biso   1.000  Ag
  Ag4      1.0000 0.74456  0.64457  0.86916  Biso   1.000  Ag
  Ag5      1.0000 0.75768  0.67176  0.16035  Biso   1.000  Ag
  Ag6      1.0000 0.24232  0.32824  0.83965  Biso   1.000  Ag
  Ag7      1.0000 0.69262  0.33493  0.30516  Biso   1.000  Ag
  Ag8      1.0000 0.30738  0.66507  0.69484  Biso   1.000  Ag
  Ag9      1.0000 0.19023  0.67729  0.34216  Biso   1.000  Ag
  Ag10     1.0000 0.80977  0.32271  0.65784  Biso   1.000  Ag
  Cu1      1.0000 0.00000  0.00000  0.00000  Biso   1.000  Cu
  Cu2      1.0000 0.50000  0.00000  0.50000  Biso   1.000  Cu
  As1      1.0000 0.26271  0.70615  0.01619  Biso   1.000  As
  As2      1.0000 0.73729  0.29385  0.98381  Biso   1.000  As
  As3      1.0000 0.05381  0.03459  0.30617  Biso   1.000  As
  As4      1.0000 0.94619  0.96541  0.69383  Biso   1.000  As
  As5      1.0000 0.27423  0.32137  0.47925  Biso   1.000  As
  As6      1.0000 0.72577  0.67863  0.52075  Biso   1.000  As
  O1       1.0000 0.48453  0.82565  0.98690  Biso   1.000  O 
  O2       1.0000 0.51547  0.17435  0.01310  Biso   1.000  O 
  O3       1.0000 0.35794  0.60883  0.13666  Biso   1.000  O 
  O4       1.0000 0.64206  0.39117  0.86334  Biso   1.000  O 
  O5       1.0000 0.04280  0.81329  0.07361  Biso   1.000  O 
  O6       1.0000 0.95720  0.18671  0.92639  Biso   1.000  O 
  O7       1.0000 0.16298  0.59358  0.87877  Biso   1.000  O 
  O8       1.0000 0.83702  0.40642  0.12123  Biso   1.000  O 
  O9       1.0000 0.03409  0.19593  0.42371  Biso   1.000  O 
  O10      1.0000 0.96591  0.80407  0.57629  Biso   1.000  O 
  O11      1.0000 0.28607  0.94304  0.34952  Biso   1.000  O 
  O12      1.0000 0.71393  0.05696  0.65048  Biso   1.000  O 
  O13      1.0000 0.09634  0.11099  0.16581  Biso   1.000  O 
  O14      1.0000 0.90366  0.88901  0.83419  Biso   1.000  O 
  O15      1.0000 0.80182  0.94230  0.31374  Biso   1.000  O 
  O16      1.0000 0.19818  0.05770  0.68626  Biso   1.000  O 
  O17      1.0000 0.18753  0.40382  0.62171  Biso   1.000  O 
  O18      1.0000 0.81247  0.59618  0.37829  Biso   1.000  O 
  O19      1.0000 0.50659  0.21323  0.48056  Biso   1.000  O 
  O20      1.0000 0.49341  0.78677  0.51944  Biso   1.000  O 
  O21      1.0000 0.31915  0.43661  0.36627  Biso   1.000  O 
  O22      1.0000 0.68085  0.56339  0.63373  Biso   1.000  O 
