data_image0
_cell_length_a       8.88819
_cell_length_b       6.04669
_cell_length_c       12.7755
_cell_angle_alpha    89.8997
_cell_angle_beta     90
_cell_angle_gamma    90

_symmetry_space_group_name_H-M    "P 1"
_symmetry_int_tables_number       1

loop_
  _symmetry_equiv_pos_as_xyz
  'x, y, z'

loop_
  _atom_site_label
  _atom_site_occupancy
  _atom_site_fract_x
  _atom_site_fract_y
  _atom_site_fract_z
  _atom_site_thermal_displace_type
  _atom_site_B_iso_or_equiv
  _atom_site_type_symbol
  Bi1      1.0000 0.12246  0.96929  0.11561  Biso   1.000  Bi
  Bi2      1.0000 0.62246  0.53071  0.38439  Biso   1.000  Bi
  Bi3      1.0000 0.87754  0.03071  0.88439  Biso   1.000  Bi
  Bi4      1.0000 0.37754  0.46929  0.61561  Biso   1.000  Bi
  Ag1      1.0000 0.22528  0.24217  0.36749  Biso   1.000  Ag
  Ag2      1.0000 0.72528  0.25783  0.13251  Biso   1.000  Ag
  Ag3      1.0000 0.77472  0.75783  0.63251  Biso   1.000  Ag
  Ag4      1.0000 0.27472  0.74217  0.86749  Biso   1.000  Ag
  Ag5      1.0000 0.50000  0.00000  0.50000  Biso   1.000  Ag
  Ag6      1.0000 0.00000  0.50000  1.00000  Biso   1.000  Ag
  Ag7      1.0000 0.50717  0.96894  0.74067  Biso   1.000  Ag
  Ag8      1.0000 0.00717  0.53106  0.75933  Biso   1.000  Ag
  Ag9      1.0000 0.49283  0.03106  0.25933  Biso   1.000  Ag
  Ag10     1.0000 0.99283  0.46894  0.24067  Biso   1.000  Ag
  Ag11     1.0000 0.22156  0.74912  0.36917  Biso   1.000  Ag
  Ag12     1.0000 0.72156  0.75088  0.13083  Biso   1.000  Ag
  Ag13     1.0000 0.77844  0.25088  0.63083  Biso   1.000  Ag
  Ag14     1.0000 0.27844  0.24912  0.86917  Biso   1.000  Ag
  Ag15     1.0000 0.50000  0.00000  0.00000  Biso   1.000  Ag
  Ag16     1.0000 0.00000  0.50000  0.50000  Biso   1.000  Ag
  Ag17     1.0000 0.13856  0.95461  0.65464  Biso   1.000  Ag
  Ag18     1.0000 0.63856  0.54539  0.84536  Biso   1.000  Ag
  Ag19     1.0000 0.86144  0.04539  0.34536  Biso   1.000  Ag
  Ag20     1.0000 0.36144  0.45461  0.15464  Biso   1.000  Ag
  O1       1.0000 0.36306  0.83490  0.61560  Biso   1.000  O 
  O2       1.0000 0.86306  0.66510  0.88440  Biso   1.000  O 
  O3       1.0000 0.63694  0.16510  0.38440  Biso   1.000  O 
  O4       1.0000 0.13694  0.33490  0.11560  Biso   1.000  O 
  O5       1.0000 0.35788  0.49685  0.43192  Biso   1.000  O 
  O6       1.0000 0.85788  0.00315  0.06808  Biso   1.000  O 
  O7       1.0000 0.64212  0.50315  0.56808  Biso   1.000  O 
  O8       1.0000 0.14212  0.99685  0.93192  Biso   1.000  O 
  O9       1.0000 0.40943  0.49618  0.79525  Biso   1.000  O 
  O10      1.0000 0.90943  0.00382  0.70475  Biso   1.000  O 
  O11      1.0000 0.59057  0.50382  0.20475  Biso   1.000  O 
  O12      1.0000 0.09057  0.99618  0.29525  Biso   1.000  O 
  O13      1.0000 0.13286  0.41024  0.62929  Biso   1.000  O 
  O14      1.0000 0.63286  0.08976  0.87071  Biso   1.000  O 
  O15      1.0000 0.86714  0.58976  0.37071  Biso   1.000  O 
  O16      1.0000 0.36714  0.91024  0.12929  Biso   1.000  O 
