data_image0
_cell_length_a       7.37565
_cell_length_b       7.37565
_cell_length_c       11.3112
_cell_angle_alpha    84.888
_cell_angle_beta     84.888
_cell_angle_gamma    33.7579

_symmetry_space_group_name_H-M    "P 1"
_symmetry_int_tables_number       1

loop_
  _symmetry_equiv_pos_as_xyz
  'x, y, z'

loop_
  _atom_site_label
  _atom_site_occupancy
  _atom_site_fract_x
  _atom_site_fract_y
  _atom_site_fract_z
  _atom_site_thermal_displace_type
  _atom_site_B_iso_or_equiv
  _atom_site_type_symbol
  La1      1.0000 0.50000  0.50000  0.50000  Biso   1.000  La
  Ba1      1.0000 0.74797  0.74797  0.70770  Biso   1.000  Ba
  Ba2      1.0000 0.25203  0.25203  0.29230  Biso   1.000  Ba
  Ag1      1.0000 0.98150  0.98150  0.25509  Biso   1.000  Ag
  Ag2      1.0000 0.01850  0.01850  0.74491  Biso   1.000  Ag
  Ag3      1.0000 0.64665  0.64665  0.03702  Biso   1.000  Ag
  Ag4      1.0000 0.35335  0.35335  0.96298  Biso   1.000  Ag
  Ag5      1.0000 0.00000  0.00000  0.00000  Biso   1.000  Ag
  S1       1.0000 0.86943  0.86943  0.44878  Biso   1.000  S 
  S2       1.0000 0.13057  0.13057  0.55122  Biso   1.000  S 
  S3       1.0000 0.84280  0.84280  0.10053  Biso   1.000  S 
  S4       1.0000 0.15720  0.15720  0.89947  Biso   1.000  S 
  S5       1.0000 0.58765  0.58765  0.25829  Biso   1.000  S 
  S6       1.0000 0.41235  0.41235  0.74171  Biso   1.000  S 
