data_image0
_cell_length_a       7.31132
_cell_length_b       7.31132
_cell_length_c       11.2649
_cell_angle_alpha    84.7602
_cell_angle_beta     84.7602
_cell_angle_gamma    33.4374

_symmetry_space_group_name_H-M    "P 1"
_symmetry_int_tables_number       1

loop_
  _symmetry_equiv_pos_as_xyz
  'x, y, z'

loop_
  _atom_site_label
  _atom_site_occupancy
  _atom_site_fract_x
  _atom_site_fract_y
  _atom_site_fract_z
  _atom_site_thermal_displace_type
  _atom_site_B_iso_or_equiv
  _atom_site_type_symbol
  Y1       1.0000 0.50000  0.50000  0.50000  Biso   1.000  Y 
  Ba1      1.0000 0.74520  0.74520  0.70309  Biso   1.000  Ba
  Ba2      1.0000 0.25480  0.25480  0.29691  Biso   1.000  Ba
  Ag1      1.0000 0.98210  0.98210  0.25447  Biso   1.000  Ag
  Ag2      1.0000 0.01790  0.01790  0.74553  Biso   1.000  Ag
  Ag3      1.0000 0.64586  0.64586  0.04258  Biso   1.000  Ag
  Ag4      1.0000 0.35414  0.35414  0.95742  Biso   1.000  Ag
  Ag5      1.0000 0.00000  0.00000  0.00000  Biso   1.000  Ag
  S1       1.0000 0.87550  0.87550  0.45409  Biso   1.000  S 
  S2       1.0000 0.12450  0.12450  0.54591  Biso   1.000  S 
  S3       1.0000 0.84197  0.84197  0.10140  Biso   1.000  S 
  S4       1.0000 0.15803  0.15803  0.89860  Biso   1.000  S 
  S5       1.0000 0.58861  0.58861  0.26784  Biso   1.000  S 
  S6       1.0000 0.41139  0.41139  0.73216  Biso   1.000  S 
