data_image0
_cell_length_a       14.1177
_cell_length_b       14.1177
_cell_length_c       4.4025
_cell_angle_alpha    90
_cell_angle_beta     90
_cell_angle_gamma    90

_symmetry_space_group_name_H-M    "P 1"
_symmetry_int_tables_number       1

loop_
  _symmetry_equiv_pos_as_xyz
  'x, y, z'

loop_
  _atom_site_label
  _atom_site_occupancy
  _atom_site_fract_x
  _atom_site_fract_y
  _atom_site_fract_z
  _atom_site_thermal_displace_type
  _atom_site_B_iso_or_equiv
  _atom_site_type_symbol
  Cs1      1.0000 0.11456  0.88544  0.50000  Biso   1.000  Cs
  Cs2      1.0000 0.88544  0.11456  0.50000  Biso   1.000  Cs
  Cs3      1.0000 0.38544  0.38544  0.00000  Biso   1.000  Cs
  Cs4      1.0000 0.61456  0.61456  0.00000  Biso   1.000  Cs
  Se1      1.0000 0.11744  0.67235  0.00000  Biso   1.000  Se
  Se2      1.0000 0.88256  0.32765  0.00000  Biso   1.000  Se
  Se3      1.0000 0.38256  0.17235  0.50000  Biso   1.000  Se
  Se4      1.0000 0.61744  0.82765  0.50000  Biso   1.000  Se
  Se5      1.0000 0.67235  0.11744  0.00000  Biso   1.000  Se
  Se6      1.0000 0.32765  0.88256  0.00000  Biso   1.000  Se
  Se7      1.0000 0.17235  0.38256  0.50000  Biso   1.000  Se
  Se8      1.0000 0.82765  0.61744  0.50000  Biso   1.000  Se
  Se9      1.0000 0.40288  0.59712  0.50000  Biso   1.000  Se
  Se10     1.0000 0.59712  0.40288  0.50000  Biso   1.000  Se
  Se11     1.0000 0.09712  0.09712  0.00000  Biso   1.000  Se
  Se12     1.0000 0.90288  0.90288  0.00000  Biso   1.000  Se
  Ag1      1.0000 0.01517  0.60930  0.50000  Biso   1.000  Ag
  Ag2      1.0000 0.98483  0.39070  0.50000  Biso   1.000  Ag
  Ag3      1.0000 0.48483  0.10930  0.00000  Biso   1.000  Ag
  Ag4      1.0000 0.51517  0.89070  0.00000  Biso   1.000  Ag
  Ag5      1.0000 0.60930  0.01517  0.50000  Biso   1.000  Ag
  Ag6      1.0000 0.39070  0.98483  0.50000  Biso   1.000  Ag
  Ag7      1.0000 0.10930  0.48483  0.00000  Biso   1.000  Ag
  Ag8      1.0000 0.89070  0.51517  0.00000  Biso   1.000  Ag
  Ag9      1.0000 0.21800  0.58053  0.50000  Biso   1.000  Ag
  Ag10     1.0000 0.78200  0.41947  0.50000  Biso   1.000  Ag
  Ag11     1.0000 0.28200  0.08053  0.00000  Biso   1.000  Ag
  Ag12     1.0000 0.71800  0.91947  0.00000  Biso   1.000  Ag
  Ag13     1.0000 0.58053  0.21800  0.50000  Biso   1.000  Ag
  Ag14     1.0000 0.41947  0.78200  0.50000  Biso   1.000  Ag
  Ag15     1.0000 0.08053  0.28200  0.00000  Biso   1.000  Ag
  Ag16     1.0000 0.91947  0.71800  0.00000  Biso   1.000  Ag
  Ag17     1.0000 0.32543  0.67457  0.00000  Biso   1.000  Ag
  Ag18     1.0000 0.67457  0.32543  0.00000  Biso   1.000  Ag
  Ag19     1.0000 0.17457  0.17457  0.50000  Biso   1.000  Ag
  Ag20     1.0000 0.82543  0.82543  0.50000  Biso   1.000  Ag
