data_image0
_cell_length_a       6.4373
_cell_length_b       6.4373
_cell_length_c       7.42417
_cell_angle_alpha    90
_cell_angle_beta     90
_cell_angle_gamma    121.162

_symmetry_space_group_name_H-M    "P 1"
_symmetry_int_tables_number       1

loop_
  _symmetry_equiv_pos_as_xyz
  'x, y, z'

loop_
  _atom_site_label
  _atom_site_occupancy
  _atom_site_fract_x
  _atom_site_fract_y
  _atom_site_fract_z
  _atom_site_thermal_displace_type
  _atom_site_B_iso_or_equiv
  _atom_site_type_symbol
  Ag1      1.0000 0.40830  0.40830  0.50000  Biso   1.000  Ag
  Ag2      1.0000 0.05976  0.67548  0.21774  Biso   1.000  Ag
  Ag3      1.0000 0.67548  0.05976  0.78226  Biso   1.000  Ag
  Ag4      1.0000 0.05976  0.67548  0.78226  Biso   1.000  Ag
  Ag5      1.0000 0.67548  0.05976  0.21774  Biso   1.000  Ag
  P1       1.0000 0.46653  0.46653  0.00000  Biso   1.000  P 
  S1       1.0000 0.41337  0.11846  0.00000  Biso   1.000  S 
  S2       1.0000 0.11846  0.41337  0.00000  Biso   1.000  S 
  S3       1.0000 0.65445  0.65445  0.23058  Biso   1.000  S 
  S4       1.0000 0.65445  0.65445  0.76942  Biso   1.000  S 
  Cl1      1.0000 0.94175  0.27840  0.50000  Biso   1.000  Cl
  Cl2      1.0000 0.27840  0.94175  0.50000  Biso   1.000  Cl
