data_image0
_cell_length_a       14.7029
_cell_length_b       14.7029
_cell_length_c       4.59077
_cell_angle_alpha    90
_cell_angle_beta     90
_cell_angle_gamma    90

_symmetry_space_group_name_H-M    "P 1"
_symmetry_int_tables_number       1

loop_
  _symmetry_equiv_pos_as_xyz
  'x, y, z'

loop_
  _atom_site_label
  _atom_site_occupancy
  _atom_site_fract_x
  _atom_site_fract_y
  _atom_site_fract_z
  _atom_site_thermal_displace_type
  _atom_site_B_iso_or_equiv
  _atom_site_type_symbol
  Cs1      1.0000 0.38671  0.38671  0.00000  Biso   1.000  Cs
  Cs2      1.0000 0.61329  0.61329  0.00000  Biso   1.000  Cs
  Cs3      1.0000 0.11329  0.88671  0.50000  Biso   1.000  Cs
  Cs4      1.0000 0.88671  0.11329  0.50000  Biso   1.000  Cs
  Te1      1.0000 0.38273  0.17338  0.50000  Biso   1.000  Te
  Te2      1.0000 0.61727  0.82662  0.50000  Biso   1.000  Te
  Te3      1.0000 0.11727  0.67338  0.00000  Biso   1.000  Te
  Te4      1.0000 0.88273  0.32662  0.00000  Biso   1.000  Te
  Te5      1.0000 0.17338  0.38273  0.50000  Biso   1.000  Te
  Te6      1.0000 0.82662  0.61727  0.50000  Biso   1.000  Te
  Te7      1.0000 0.67338  0.11727  0.00000  Biso   1.000  Te
  Te8      1.0000 0.32662  0.88273  0.00000  Biso   1.000  Te
  Te9      1.0000 0.59840  0.40160  0.50000  Biso   1.000  Te
  Te10     1.0000 0.40160  0.59840  0.50000  Biso   1.000  Te
  Te11     1.0000 0.90160  0.90160  0.00000  Biso   1.000  Te
  Te12     1.0000 0.09840  0.09840  0.00000  Biso   1.000  Te
  Ag1      1.0000 0.28661  0.08169  0.00000  Biso   1.000  Ag
  Ag2      1.0000 0.71339  0.91831  0.00000  Biso   1.000  Ag
  Ag3      1.0000 0.21339  0.58169  0.50000  Biso   1.000  Ag
  Ag4      1.0000 0.78661  0.41831  0.50000  Biso   1.000  Ag
  Ag5      1.0000 0.08169  0.28661  0.00000  Biso   1.000  Ag
  Ag6      1.0000 0.91831  0.71339  0.00000  Biso   1.000  Ag
  Ag7      1.0000 0.58169  0.21339  0.50000  Biso   1.000  Ag
  Ag8      1.0000 0.41831  0.78661  0.50000  Biso   1.000  Ag
  Ag9      1.0000 0.48322  0.10445  0.00000  Biso   1.000  Ag
  Ag10     1.0000 0.51678  0.89555  0.00000  Biso   1.000  Ag
  Ag11     1.0000 0.01678  0.60445  0.50000  Biso   1.000  Ag
  Ag12     1.0000 0.98322  0.39555  0.50000  Biso   1.000  Ag
  Ag13     1.0000 0.10445  0.48322  0.00000  Biso   1.000  Ag
  Ag14     1.0000 0.89555  0.51678  0.00000  Biso   1.000  Ag
  Ag15     1.0000 0.60445  0.01678  0.50000  Biso   1.000  Ag
  Ag16     1.0000 0.39555  0.98322  0.50000  Biso   1.000  Ag
  Ag17     1.0000 0.17724  0.17724  0.50000  Biso   1.000  Ag
  Ag18     1.0000 0.82276  0.82276  0.50000  Biso   1.000  Ag
  Ag19     1.0000 0.32276  0.67724  0.00000  Biso   1.000  Ag
  Ag20     1.0000 0.67724  0.32276  0.00000  Biso   1.000  Ag
