data_image0
_cell_length_a       10.0047
_cell_length_b       6.52017
_cell_length_c       11.1929
_cell_angle_alpha    55.7955
_cell_angle_beta     90
_cell_angle_gamma    90

_symmetry_space_group_name_H-M    "P 1"
_symmetry_int_tables_number       1

loop_
  _symmetry_equiv_pos_as_xyz
  'x, y, z'

loop_
  _atom_site_label
  _atom_site_occupancy
  _atom_site_fract_x
  _atom_site_fract_y
  _atom_site_fract_z
  _atom_site_thermal_displace_type
  _atom_site_B_iso_or_equiv
  _atom_site_type_symbol
  Ag1      1.0000 0.37559  0.34866  0.44245  Biso   1.000  Ag
  Ag2      1.0000 0.12441  0.34866  0.94245  Biso   1.000  Ag
  Ag3      1.0000 0.62441  0.65134  0.55755  Biso   1.000  Ag
  Ag4      1.0000 0.87559  0.65134  0.05755  Biso   1.000  Ag
  Ag5      1.0000 0.37788  0.80228  0.42313  Biso   1.000  Ag
  Ag6      1.0000 0.12212  0.80228  0.92313  Biso   1.000  Ag
  Ag7      1.0000 0.62212  0.19772  0.57687  Biso   1.000  Ag
  Ag8      1.0000 0.87788  0.19772  0.07687  Biso   1.000  Ag
  Ag9      1.0000 0.40658  0.32361  0.69942  Biso   1.000  Ag
  Ag10     1.0000 0.09342  0.32361  0.19942  Biso   1.000  Ag
  Ag11     1.0000 0.59342  0.67639  0.30058  Biso   1.000  Ag
  Ag12     1.0000 0.90658  0.67639  0.80058  Biso   1.000  Ag
  Ag13     1.0000 0.35140  0.60310  0.12127  Biso   1.000  Ag
  Ag14     1.0000 0.14860  0.60310  0.62127  Biso   1.000  Ag
  Ag15     1.0000 0.64860  0.39690  0.87873  Biso   1.000  Ag
  Ag16     1.0000 0.85140  0.39690  0.37873  Biso   1.000  Ag
  Ag17     1.0000 0.41584  0.06799  0.09157  Biso   1.000  Ag
  Ag18     1.0000 0.08416  0.06799  0.59157  Biso   1.000  Ag
  Ag19     1.0000 0.58416  0.93201  0.90843  Biso   1.000  Ag
  Ag20     1.0000 0.91584  0.93201  0.40843  Biso   1.000  Ag
  Ge1      1.0000 0.38853  0.75129  0.76024  Biso   1.000  Ge
  Ge2      1.0000 0.11147  0.75129  0.26024  Biso   1.000  Ge
  Ge3      1.0000 0.61147  0.24871  0.23976  Biso   1.000  Ge
  Ge4      1.0000 0.88853  0.24871  0.73976  Biso   1.000  Ge
  O1       1.0000 0.36143  0.88318  0.86464  Biso   1.000  O 
  O2       1.0000 0.13857  0.88318  0.36464  Biso   1.000  O 
  O3       1.0000 0.63857  0.11682  0.13536  Biso   1.000  O 
  O4       1.0000 0.86143  0.11682  0.63536  Biso   1.000  O 
  O5       1.0000 0.34446  0.42705  0.86022  Biso   1.000  O 
  O6       1.0000 0.15554  0.42705  0.36022  Biso   1.000  O 
  O7       1.0000 0.65554  0.57295  0.13978  Biso   1.000  O 
  O8       1.0000 0.84446  0.57295  0.63978  Biso   1.000  O 
  O9       1.0000 0.29159  0.92643  0.59464  Biso   1.000  O 
  O10      1.0000 0.20841  0.92643  0.09464  Biso   1.000  O 
  O11      1.0000 0.70841  0.07357  0.40536  Biso   1.000  O 
  O12      1.0000 0.79159  0.07357  0.90536  Biso   1.000  O 
  O13      1.0000 0.43393  0.22309  0.27729  Biso   1.000  O 
  O14      1.0000 0.06607  0.22309  0.77729  Biso   1.000  O 
  O15      1.0000 0.56607  0.77691  0.72271  Biso   1.000  O 
  O16      1.0000 0.93393  0.77691  0.22271  Biso   1.000  O 
