data_image0
_cell_length_a       6.01229
_cell_length_b       6.01229
_cell_length_c       12.4768
_cell_angle_alpha    90
_cell_angle_beta     90
_cell_angle_gamma    120

_symmetry_space_group_name_H-M    "P 1"
_symmetry_int_tables_number       1

loop_
  _symmetry_equiv_pos_as_xyz
  'x, y, z'

loop_
  _atom_site_label
  _atom_site_occupancy
  _atom_site_fract_x
  _atom_site_fract_y
  _atom_site_fract_z
  _atom_site_thermal_displace_type
  _atom_site_B_iso_or_equiv
  _atom_site_type_symbol
  Ag1      1.0000 0.00000  0.00000  0.38112  Biso   1.000  Ag
  Ag2      1.0000 0.00000  0.00000  0.88112  Biso   1.000  Ag
  Ag3      1.0000 0.00000  0.00000  0.61888  Biso   1.000  Ag
  Ag4      1.0000 0.00000  0.00000  0.11888  Biso   1.000  Ag
  Ag5      1.0000 0.50000  0.00000  0.50000  Biso   1.000  Ag
  Ag6      1.0000 0.50000  0.50000  0.50000  Biso   1.000  Ag
  Ag7      1.0000 0.00000  0.50000  0.50000  Biso   1.000  Ag
  Ag8      1.0000 0.50000  0.50000  0.00000  Biso   1.000  Ag
  Ag9      1.0000 0.00000  0.50000  0.00000  Biso   1.000  Ag
  Ag10     1.0000 0.50000  0.00000  0.00000  Biso   1.000  Ag
  Hg1      1.0000 0.33333  0.66667  0.25000  Biso   1.000  Hg
  Hg2      1.0000 0.66667  0.33333  0.75000  Biso   1.000  Hg
  Sb1      1.0000 0.66667  0.33333  0.25000  Biso   1.000  Sb
  Sb2      1.0000 0.33333  0.66667  0.75000  Biso   1.000  Sb
  O1       1.0000 0.65074  0.04507  0.34245  Biso   1.000  O 
  O2       1.0000 0.39432  0.34926  0.34245  Biso   1.000  O 
  O3       1.0000 0.95493  0.60568  0.34245  Biso   1.000  O 
  O4       1.0000 0.34926  0.39432  0.84245  Biso   1.000  O 
  O5       1.0000 0.04507  0.65074  0.84245  Biso   1.000  O 
  O6       1.0000 0.60567  0.95493  0.84245  Biso   1.000  O 
  O7       1.0000 0.34926  0.95493  0.65755  Biso   1.000  O 
  O8       1.0000 0.60567  0.65074  0.65755  Biso   1.000  O 
  O9       1.0000 0.04507  0.39432  0.65755  Biso   1.000  O 
  O10      1.0000 0.65074  0.60568  0.15755  Biso   1.000  O 
  O11      1.0000 0.95493  0.34926  0.15755  Biso   1.000  O 
  O12      1.0000 0.39432  0.04507  0.15755  Biso   1.000  O 
