data_image0
_cell_length_a       11.3531
_cell_length_b       11.3531
_cell_length_c       11.3531
_cell_angle_alpha    30.1928
_cell_angle_beta     30.1928
_cell_angle_gamma    30.1928

_symmetry_space_group_name_H-M    "P 1"
_symmetry_int_tables_number       1

loop_
  _symmetry_equiv_pos_as_xyz
  'x, y, z'

loop_
  _atom_site_label
  _atom_site_occupancy
  _atom_site_fract_x
  _atom_site_fract_y
  _atom_site_fract_z
  _atom_site_thermal_displace_type
  _atom_site_B_iso_or_equiv
  _atom_site_type_symbol
  I1       1.0000 0.00000  0.00000  0.00000  Biso   1.000  I 
  I2       1.0000 0.50000  0.50000  0.50000  Biso   1.000  I 
  Ag1      1.0000 0.54573  0.95427  0.25000  Biso   1.000  Ag
  Ag2      1.0000 0.95427  0.25000  0.54573  Biso   1.000  Ag
  Ag3      1.0000 0.25000  0.54573  0.95427  Biso   1.000  Ag
  Ag4      1.0000 0.04573  0.75000  0.45427  Biso   1.000  Ag
  Ag5      1.0000 0.75000  0.45427  0.04573  Biso   1.000  Ag
  Ag6      1.0000 0.45427  0.04573  0.75000  Biso   1.000  Ag
  Ag7      1.0000 0.14851  0.14851  0.14851  Biso   1.000  Ag
  Ag8      1.0000 0.35149  0.35149  0.35149  Biso   1.000  Ag
  Ag9      1.0000 0.85149  0.85149  0.85149  Biso   1.000  Ag
  Ag10     1.0000 0.64851  0.64851  0.64851  Biso   1.000  Ag
  O1       1.0000 0.32497  0.79457  0.98175  Biso   1.000  O 
  O2       1.0000 0.70543  0.17504  0.51825  Biso   1.000  O 
  O3       1.0000 0.17504  0.51825  0.70543  Biso   1.000  O 
  O4       1.0000 0.51825  0.70543  0.17503  Biso   1.000  O 
  O5       1.0000 0.20543  0.01825  0.67504  Biso   1.000  O 
  O6       1.0000 0.01825  0.67504  0.20543  Biso   1.000  O 
  O7       1.0000 0.67504  0.20543  0.01825  Biso   1.000  O 
  O8       1.0000 0.29457  0.82496  0.48175  Biso   1.000  O 
  O9       1.0000 0.82497  0.48175  0.29457  Biso   1.000  O 
  O10      1.0000 0.48175  0.29457  0.82496  Biso   1.000  O 
  O11      1.0000 0.79457  0.98175  0.32496  Biso   1.000  O 
  O12      1.0000 0.98175  0.32496  0.79457  Biso   1.000  O 
