data_image0
_cell_length_a       7.06734
_cell_length_b       7.06734
_cell_length_c       7.4022
_cell_angle_alpha    90
_cell_angle_beta     90
_cell_angle_gamma    90

_symmetry_space_group_name_H-M    "P 1"
_symmetry_int_tables_number       1

loop_
  _symmetry_equiv_pos_as_xyz
  'x, y, z'

loop_
  _atom_site_label
  _atom_site_occupancy
  _atom_site_fract_x
  _atom_site_fract_y
  _atom_site_fract_z
  _atom_site_thermal_displace_type
  _atom_site_B_iso_or_equiv
  _atom_site_type_symbol
  Ag1      1.0000 0.77790  0.72210  0.19953  Biso   1.000  Ag
  Ag2      1.0000 0.22210  0.72210  0.19953  Biso   1.000  Ag
  Ag3      1.0000 0.77790  0.27790  0.19953  Biso   1.000  Ag
  Ag4      1.0000 0.22210  0.27790  0.19953  Biso   1.000  Ag
  Ag5      1.0000 0.72210  0.77790  0.80047  Biso   1.000  Ag
  Ag6      1.0000 0.27790  0.77790  0.80047  Biso   1.000  Ag
  Ag7      1.0000 0.72210  0.22210  0.80047  Biso   1.000  Ag
  Ag8      1.0000 0.27790  0.22210  0.80047  Biso   1.000  Ag
  Ag9      1.0000 0.00000  0.50000  0.46166  Biso   1.000  Ag
  Ag10     1.0000 0.50000  0.00000  0.53834  Biso   1.000  Ag
  O1       1.0000 0.50000  0.31756  0.37969  Biso   1.000  O 
  O2       1.0000 0.50000  0.68244  0.37969  Biso   1.000  O 
  O3       1.0000 0.81756  0.00000  0.37969  Biso   1.000  O 
  O4       1.0000 0.18244  0.00000  0.37969  Biso   1.000  O 
  O5       1.0000 0.00000  0.18244  0.62031  Biso   1.000  O 
  O6       1.0000 0.00000  0.81756  0.62031  Biso   1.000  O 
  O7       1.0000 0.68244  0.50000  0.62031  Biso   1.000  O 
  O8       1.0000 0.31756  0.50000  0.62031  Biso   1.000  O 
  P1       1.0000 0.50000  0.50000  0.50000  Biso   1.000  P 
  P2       1.0000 0.00000  0.00000  0.50000  Biso   1.000  P 
  Te1      1.0000 0.00000  0.50000  0.98940  Biso   1.000  Te
  Te2      1.0000 0.50000  0.00000  0.01060  Biso   1.000  Te
