data_image0
_cell_length_a       6.94293
_cell_length_b       6.94293
_cell_length_c       7.33723
_cell_angle_alpha    90
_cell_angle_beta     90
_cell_angle_gamma    90

_symmetry_space_group_name_H-M    "P 1"
_symmetry_int_tables_number       1

loop_
  _symmetry_equiv_pos_as_xyz
  'x, y, z'

loop_
  _atom_site_label
  _atom_site_occupancy
  _atom_site_fract_x
  _atom_site_fract_y
  _atom_site_fract_z
  _atom_site_thermal_displace_type
  _atom_site_B_iso_or_equiv
  _atom_site_type_symbol
  Ag1      1.0000 0.78279  0.71721  0.19456  Biso   1.000  Ag
  Ag2      1.0000 0.21721  0.71721  0.19456  Biso   1.000  Ag
  Ag3      1.0000 0.78279  0.28279  0.19456  Biso   1.000  Ag
  Ag4      1.0000 0.21721  0.28279  0.19456  Biso   1.000  Ag
  Ag5      1.0000 0.71721  0.78279  0.80544  Biso   1.000  Ag
  Ag6      1.0000 0.28279  0.78279  0.80544  Biso   1.000  Ag
  Ag7      1.0000 0.71721  0.21721  0.80544  Biso   1.000  Ag
  Ag8      1.0000 0.28279  0.21721  0.80544  Biso   1.000  Ag
  Ag9      1.0000 0.00000  0.50000  0.46799  Biso   1.000  Ag
  Ag10     1.0000 0.50000  0.00000  0.53201  Biso   1.000  Ag
  O1       1.0000 0.50000  0.31570  0.37694  Biso   1.000  O 
  O2       1.0000 0.50000  0.68430  0.37694  Biso   1.000  O 
  O3       1.0000 0.81570  0.00000  0.37694  Biso   1.000  O 
  O4       1.0000 0.18430  0.00000  0.37694  Biso   1.000  O 
  O5       1.0000 0.00000  0.18430  0.62306  Biso   1.000  O 
  O6       1.0000 0.00000  0.81570  0.62306  Biso   1.000  O 
  O7       1.0000 0.68430  0.50000  0.62306  Biso   1.000  O 
  O8       1.0000 0.31570  0.50000  0.62306  Biso   1.000  O 
  P1       1.0000 0.50000  0.50000  0.50000  Biso   1.000  P 
  P2       1.0000 0.00000  0.00000  0.50000  Biso   1.000  P 
  Se1      1.0000 0.00000  0.50000  0.99351  Biso   1.000  Se
  Se2      1.0000 0.50000  0.00000  0.00649  Biso   1.000  Se
