data_image0
_cell_length_a       6.34643
_cell_length_b       9.03981
_cell_length_c       10.1942
_cell_angle_alpha    90
_cell_angle_beta     90
_cell_angle_gamma    90

_symmetry_space_group_name_H-M    "P 1"
_symmetry_int_tables_number       1

loop_
  _symmetry_equiv_pos_as_xyz
  'x, y, z'

loop_
  _atom_site_label
  _atom_site_occupancy
  _atom_site_fract_x
  _atom_site_fract_y
  _atom_site_fract_z
  _atom_site_thermal_displace_type
  _atom_site_B_iso_or_equiv
  _atom_site_type_symbol
  Ag1      1.0000 0.27760  0.93332  0.62029  Biso   1.000  Ag
  Ag2      1.0000 0.27760  0.06668  0.37971  Biso   1.000  Ag
  Ag3      1.0000 0.22240  0.56668  0.12029  Biso   1.000  Ag
  Ag4      1.0000 0.22240  0.43332  0.87971  Biso   1.000  Ag
  Ag5      1.0000 0.72240  0.06668  0.37971  Biso   1.000  Ag
  Ag6      1.0000 0.72240  0.93332  0.62029  Biso   1.000  Ag
  Ag7      1.0000 0.77760  0.43332  0.87971  Biso   1.000  Ag
  Ag8      1.0000 0.77760  0.56668  0.12029  Biso   1.000  Ag
  Ag9      1.0000 0.50000  0.20711  0.58972  Biso   1.000  Ag
  Ag10     1.0000 0.50000  0.79289  0.41028  Biso   1.000  Ag
  Ag11     1.0000 0.00000  0.29289  0.08972  Biso   1.000  Ag
  Ag12     1.0000 0.00000  0.70711  0.91028  Biso   1.000  Ag
  Ag13     1.0000 0.27139  0.60588  0.61897  Biso   1.000  Ag
  Ag14     1.0000 0.27139  0.39412  0.38103  Biso   1.000  Ag
  Ag15     1.0000 0.22861  0.89412  0.11897  Biso   1.000  Ag
  Ag16     1.0000 0.22861  0.10588  0.88103  Biso   1.000  Ag
  Ag17     1.0000 0.72861  0.39412  0.38103  Biso   1.000  Ag
  Ag18     1.0000 0.72861  0.60588  0.61897  Biso   1.000  Ag
  Ag19     1.0000 0.77139  0.10588  0.88103  Biso   1.000  Ag
  Ag20     1.0000 0.77139  0.89412  0.11897  Biso   1.000  Ag
  Si1      1.0000 0.50000  0.76294  0.88083  Biso   1.000  Si
  Si2      1.0000 0.50000  0.23706  0.11917  Biso   1.000  Si
  Si3      1.0000 0.00000  0.73706  0.38083  Biso   1.000  Si
  Si4      1.0000 0.00000  0.26294  0.61917  Biso   1.000  Si
  O1       1.0000 0.00000  0.75835  0.54347  Biso   1.000  O 
  O2       1.0000 0.00000  0.24165  0.45653  Biso   1.000  O 
  O3       1.0000 0.50000  0.74165  0.04347  Biso   1.000  O 
  O4       1.0000 0.50000  0.25835  0.95653  Biso   1.000  O 
  O5       1.0000 0.00000  0.09950  0.69538  Biso   1.000  O 
  O6       1.0000 0.00000  0.90050  0.30462  Biso   1.000  O 
  O7       1.0000 0.50000  0.40050  0.19538  Biso   1.000  O 
  O8       1.0000 0.50000  0.59950  0.80462  Biso   1.000  O 
  O9       1.0000 0.28251  0.85322  0.83948  Biso   1.000  O 
  O10      1.0000 0.28251  0.14678  0.16052  Biso   1.000  O 
  O11      1.0000 0.21749  0.64678  0.33948  Biso   1.000  O 
  O12      1.0000 0.21749  0.35322  0.66052  Biso   1.000  O 
  O13      1.0000 0.71749  0.14678  0.16052  Biso   1.000  O 
  O14      1.0000 0.71749  0.85322  0.83948  Biso   1.000  O 
  O15      1.0000 0.78251  0.35322  0.66052  Biso   1.000  O 
  O16      1.0000 0.78251  0.64678  0.33948  Biso   1.000  O 
