data_image0
_cell_length_a       10.4141
_cell_length_b       10.4141
_cell_length_c       10.4141
_cell_angle_alpha    140.488
_cell_angle_beta     140.488
_cell_angle_gamma    57.1131

_symmetry_space_group_name_H-M    "P 1"
_symmetry_int_tables_number       1

loop_
  _symmetry_equiv_pos_as_xyz
  'x, y, z'

loop_
  _atom_site_label
  _atom_site_occupancy
  _atom_site_fract_x
  _atom_site_fract_y
  _atom_site_fract_z
  _atom_site_thermal_displace_type
  _atom_site_B_iso_or_equiv
  _atom_site_type_symbol
  Ag1      1.0000 0.16945  0.62500  0.04445  Biso   1.000  Ag
  Ag2      1.0000 0.58055  0.62500  0.45555  Biso   1.000  Ag
  Ag3      1.0000 0.37500  0.41945  0.54445  Biso   1.000  Ag
  Ag4      1.0000 0.87500  0.41945  0.04445  Biso   1.000  Ag
  Ag5      1.0000 0.16945  0.12500  0.54445  Biso   1.000  Ag
  Ag6      1.0000 0.58055  0.12500  0.95555  Biso   1.000  Ag
  Ag7      1.0000 0.37500  0.83055  0.95555  Biso   1.000  Ag
  Ag8      1.0000 0.87500  0.83055  0.45555  Biso   1.000  Ag
  Ag9      1.0000 0.73635  0.73635  0.00000  Biso   1.000  Ag
  Ag10     1.0000 0.48635  0.98635  0.50000  Biso   1.000  Ag
  Ag11     1.0000 0.01365  0.51365  0.50000  Biso   1.000  Ag
  Ag12     1.0000 0.26365  0.26365  0.00000  Biso   1.000  Ag
  Cr1      1.0000 0.75000  0.25000  0.50000  Biso   1.000  Cr
  Cr2      1.0000 0.00000  0.00000  0.00000  Biso   1.000  Cr
  Si1      1.0000 0.25000  0.75000  0.50000  Biso   1.000  Si
  Si2      1.0000 0.50000  0.50000  0.00000  Biso   1.000  Si
  O1       1.0000 0.10846  0.80208  0.30638  Biso   1.000  O 
  O2       1.0000 0.49570  0.80208  0.69362  Biso   1.000  O 
  O3       1.0000 0.55208  0.35846  0.80638  Biso   1.000  O 
  O4       1.0000 0.55208  0.74570  0.19362  Biso   1.000  O 
  O5       1.0000 0.64154  0.44792  0.19362  Biso   1.000  O 
  O6       1.0000 0.25430  0.44792  0.80638  Biso   1.000  O 
  O7       1.0000 0.19792  0.89154  0.69362  Biso   1.000  O 
  O8       1.0000 0.19792  0.50430  0.30638  Biso   1.000  O 
  O9       1.0000 0.80156  0.10559  0.30403  Biso   1.000  O 
  O10      1.0000 0.85559  0.05156  0.80403  Biso   1.000  O 
  O11      1.0000 0.24754  0.05156  0.19597  Biso   1.000  O 
  O12      1.0000 0.80156  0.49754  0.69597  Biso   1.000  O 
  O13      1.0000 0.94844  0.14441  0.19597  Biso   1.000  O 
  O14      1.0000 0.89441  0.19844  0.69597  Biso   1.000  O 
  O15      1.0000 0.50246  0.19844  0.30403  Biso   1.000  O 
  O16      1.0000 0.94844  0.75246  0.80403  Biso   1.000  O 
