data_image0
_cell_length_a       7.57704
_cell_length_b       7.57704
_cell_length_c       5.95704
_cell_angle_alpha    90
_cell_angle_beta     90
_cell_angle_gamma    120

_symmetry_space_group_name_H-M    "P 1"
_symmetry_int_tables_number       1

loop_
  _symmetry_equiv_pos_as_xyz
  'x, y, z'

loop_
  _atom_site_label
  _atom_site_occupancy
  _atom_site_fract_x
  _atom_site_fract_y
  _atom_site_fract_z
  _atom_site_thermal_displace_type
  _atom_site_B_iso_or_equiv
  _atom_site_type_symbol
  Ag1      1.0000 0.82183  0.64366  0.18567  Biso   1.000  Ag
  Ag2      1.0000 0.82183  0.17817  0.18567  Biso   1.000  Ag
  Ag3      1.0000 0.35634  0.17817  0.18567  Biso   1.000  Ag
  Ag4      1.0000 0.49681  0.99363  0.73354  Biso   1.000  Ag
  Ag5      1.0000 0.49681  0.50319  0.73354  Biso   1.000  Ag
  Ag6      1.0000 0.00637  0.50319  0.73354  Biso   1.000  Ag
  Mo1      1.0000 0.33333  0.66667  0.24583  Biso   1.000  Mo
  Mo2      1.0000 0.00000  0.00000  0.68115  Biso   1.000  Mo
  Cl1      1.0000 0.66667  0.33333  0.49323  Biso   1.000  Cl
  F1       1.0000 0.11521  0.23041  0.43303  Biso   1.000  F 
  F2       1.0000 0.11521  0.88479  0.43303  Biso   1.000  F 
  F3       1.0000 0.76959  0.88479  0.43303  Biso   1.000  F 
  O1       1.0000 0.46041  0.92081  0.12889  Biso   1.000  O 
  O2       1.0000 0.46041  0.53959  0.12889  Biso   1.000  O 
  O3       1.0000 0.07919  0.53959  0.12889  Biso   1.000  O 
  O4       1.0000 0.87652  0.12348  0.81426  Biso   1.000  O 
  O5       1.0000 0.24696  0.12348  0.81426  Biso   1.000  O 
  O6       1.0000 0.87652  0.75304  0.81426  Biso   1.000  O 
  O7       1.0000 0.33333  0.66667  0.55417  Biso   1.000  O 
