data_image0
_cell_length_a       10.4426
_cell_length_b       10.4426
_cell_length_c       10.4426
_cell_angle_alpha    140.266
_cell_angle_beta     140.266
_cell_angle_gamma    57.4501

_symmetry_space_group_name_H-M    "P 1"
_symmetry_int_tables_number       1

loop_
  _symmetry_equiv_pos_as_xyz
  'x, y, z'

loop_
  _atom_site_label
  _atom_site_occupancy
  _atom_site_fract_x
  _atom_site_fract_y
  _atom_site_fract_z
  _atom_site_thermal_displace_type
  _atom_site_B_iso_or_equiv
  _atom_site_type_symbol
  Ag1      1.0000 0.16621  0.62500  0.04121  Biso   1.000  Ag
  Ag2      1.0000 0.58379  0.62500  0.45879  Biso   1.000  Ag
  Ag3      1.0000 0.37500  0.41622  0.54122  Biso   1.000  Ag
  Ag4      1.0000 0.87500  0.41621  0.04121  Biso   1.000  Ag
  Ag5      1.0000 0.16621  0.12500  0.54122  Biso   1.000  Ag
  Ag6      1.0000 0.58379  0.12500  0.95879  Biso   1.000  Ag
  Ag7      1.0000 0.37500  0.83379  0.95879  Biso   1.000  Ag
  Ag8      1.0000 0.87500  0.83379  0.45879  Biso   1.000  Ag
  Ag9      1.0000 0.73210  0.73210  0.00000  Biso   1.000  Ag
  Ag10     1.0000 0.48210  0.98210  0.50000  Biso   1.000  Ag
  Ag11     1.0000 0.01790  0.51790  0.50000  Biso   1.000  Ag
  Ag12     1.0000 0.26790  0.26790  0.00000  Biso   1.000  Ag
  S1       1.0000 0.00000  0.00000  0.00000  Biso   1.000  S 
  S2       1.0000 0.75000  0.25000  0.50000  Biso   1.000  S 
  Ge1      1.0000 0.50000  0.50000  0.00000  Biso   1.000  Ge
  Ge2      1.0000 0.25000  0.75000  0.50000  Biso   1.000  Ge
  O1       1.0000 0.55545  0.34431  0.78887  Biso   1.000  O 
  O2       1.0000 0.09431  0.80545  0.28887  Biso   1.000  O 
  O3       1.0000 0.51658  0.80545  0.71113  Biso   1.000  O 
  O4       1.0000 0.55545  0.76658  0.21113  Biso   1.000  O 
  O5       1.0000 0.19455  0.90569  0.71113  Biso   1.000  O 
  O6       1.0000 0.65569  0.44455  0.21113  Biso   1.000  O 
  O7       1.0000 0.23342  0.44455  0.78887  Biso   1.000  O 
  O8       1.0000 0.19455  0.48342  0.28887  Biso   1.000  O 
  O9       1.0000 0.95295  0.78042  0.82746  Biso   1.000  O 
  O10      1.0000 0.53042  0.20295  0.32746  Biso   1.000  O 
  O11      1.0000 0.87549  0.20295  0.67254  Biso   1.000  O 
  O12      1.0000 0.95295  0.12549  0.17254  Biso   1.000  O 
  O13      1.0000 0.79705  0.46958  0.67254  Biso   1.000  O 
  O14      1.0000 0.21958  0.04705  0.17254  Biso   1.000  O 
  O15      1.0000 0.87451  0.04705  0.82746  Biso   1.000  O 
  O16      1.0000 0.79705  0.12451  0.32746  Biso   1.000  O 
