data_image0
_cell_length_a       5.38522
_cell_length_b       5.38522
_cell_length_c       5.00371
_cell_angle_alpha    90.0003
_cell_angle_beta     90.0003
_cell_angle_gamma    120

_symmetry_space_group_name_H-M    "P 1"
_symmetry_int_tables_number       1

loop_
  _symmetry_equiv_pos_as_xyz
  'x, y, z'

loop_
  _atom_site_label
  _atom_site_occupancy
  _atom_site_fract_x
  _atom_site_fract_y
  _atom_site_fract_z
  _atom_site_thermal_displace_type
  _atom_site_B_iso_or_equiv
  _atom_site_type_symbol
  Ag1      1.0000 0.31177  0.00001  0.22076  Biso   1.000  Ag
  Ag2      1.0000 0.00001  0.31177  0.22076  Biso   1.000  Ag
  Ag3      1.0000 0.68822  0.68822  0.22077  Biso   1.000  Ag
  Ag4      1.0000 0.68823  0.99999  0.77924  Biso   1.000  Ag
  Ag5      1.0000 0.99999  0.68823  0.77924  Biso   1.000  Ag
  Ag6      1.0000 0.31178  0.31178  0.77923  Biso   1.000  Ag
  O1       1.0000 0.33333  0.66667  0.50000  Biso   1.000  O 
  O2       1.0000 0.66667  0.33333  0.50000  Biso   1.000  O 
