data_image0
_cell_length_a       10.3503
_cell_length_b       10.3503
_cell_length_c       10.3503
_cell_angle_alpha    140.397
_cell_angle_beta     140.397
_cell_angle_gamma    57.2509

_symmetry_space_group_name_H-M    "P 1"
_symmetry_int_tables_number       1

loop_
  _symmetry_equiv_pos_as_xyz
  'x, y, z'

loop_
  _atom_site_label
  _atom_site_occupancy
  _atom_site_fract_x
  _atom_site_fract_y
  _atom_site_fract_z
  _atom_site_thermal_displace_type
  _atom_site_B_iso_or_equiv
  _atom_site_type_symbol
  Ag1      1.0000 0.16952  0.62500  0.04452  Biso   1.000  Ag
  Ag2      1.0000 0.58048  0.62500  0.45547  Biso   1.000  Ag
  Ag3      1.0000 0.37500  0.41952  0.54452  Biso   1.000  Ag
  Ag4      1.0000 0.87500  0.41952  0.04452  Biso   1.000  Ag
  Ag5      1.0000 0.16952  0.12500  0.54452  Biso   1.000  Ag
  Ag6      1.0000 0.58047  0.12500  0.95547  Biso   1.000  Ag
  Ag7      1.0000 0.37500  0.83047  0.95547  Biso   1.000  Ag
  Ag8      1.0000 0.87500  0.83048  0.45547  Biso   1.000  Ag
  Ag9      1.0000 0.73437  0.73437  0.00000  Biso   1.000  Ag
  Ag10     1.0000 0.48437  0.98437  0.50000  Biso   1.000  Ag
  Ag11     1.0000 0.01563  0.51563  0.50000  Biso   1.000  Ag
  Ag12     1.0000 0.26563  0.26563  0.00000  Biso   1.000  Ag
  S1       1.0000 0.00000  0.00000  0.00000  Biso   1.000  S 
  S2       1.0000 0.75000  0.25000  0.50000  Biso   1.000  S 
  Si1      1.0000 0.50000  0.50000  0.00000  Biso   1.000  Si
  Si2      1.0000 0.25000  0.75000  0.50000  Biso   1.000  Si
  O1       1.0000 0.55165  0.35597  0.80432  Biso   1.000  O 
  O2       1.0000 0.10597  0.80165  0.30432  Biso   1.000  O 
  O3       1.0000 0.49732  0.80165  0.69568  Biso   1.000  O 
  O4       1.0000 0.55165  0.74732  0.19568  Biso   1.000  O 
  O5       1.0000 0.19835  0.89403  0.69568  Biso   1.000  O 
  O6       1.0000 0.64403  0.44835  0.19568  Biso   1.000  O 
  O7       1.0000 0.25268  0.44835  0.80432  Biso   1.000  O 
  O8       1.0000 0.19835  0.50268  0.30432  Biso   1.000  O 
  O9       1.0000 0.95251  0.77816  0.82565  Biso   1.000  O 
  O10      1.0000 0.52816  0.20251  0.32565  Biso   1.000  O 
  O11      1.0000 0.87687  0.20251  0.67435  Biso   1.000  O 
  O12      1.0000 0.95251  0.12687  0.17435  Biso   1.000  O 
  O13      1.0000 0.79749  0.47184  0.67435  Biso   1.000  O 
  O14      1.0000 0.22184  0.04749  0.17435  Biso   1.000  O 
  O15      1.0000 0.87313  0.04749  0.82565  Biso   1.000  O 
  O16      1.0000 0.79749  0.12313  0.32565  Biso   1.000  O 
