data_image0
_cell_length_a       5.26706
_cell_length_b       10.0806
_cell_length_c       8.00046
_cell_angle_alpha    70.7861
_cell_angle_beta     90
_cell_angle_gamma    90

_symmetry_space_group_name_H-M    "P 1"
_symmetry_int_tables_number       1

loop_
  _symmetry_equiv_pos_as_xyz
  'x, y, z'

loop_
  _atom_site_label
  _atom_site_occupancy
  _atom_site_fract_x
  _atom_site_fract_y
  _atom_site_fract_z
  _atom_site_thermal_displace_type
  _atom_site_B_iso_or_equiv
  _atom_site_type_symbol
  Ag1      1.0000 0.25567  0.85665  0.58604  Biso   1.000  Ag
  Ag2      1.0000 0.74433  0.35665  0.08604  Biso   1.000  Ag
  Ag3      1.0000 0.25567  0.64335  0.91396  Biso   1.000  Ag
  Ag4      1.0000 0.74433  0.14335  0.41396  Biso   1.000  Ag
  Ag5      1.0000 0.31348  0.39071  0.30268  Biso   1.000  Ag
  Ag6      1.0000 0.68652  0.89071  0.80268  Biso   1.000  Ag
  Ag7      1.0000 0.31348  0.10929  0.19732  Biso   1.000  Ag
  Ag8      1.0000 0.68652  0.60929  0.69732  Biso   1.000  Ag
  Ag9      1.0000 0.27261  0.61039  0.45583  Biso   1.000  Ag
  Ag10     1.0000 0.72739  0.11039  0.95583  Biso   1.000  Ag
  Ag11     1.0000 0.27261  0.88961  0.04417  Biso   1.000  Ag
  Ag12     1.0000 0.72739  0.38961  0.54417  Biso   1.000  Ag
  Si1      1.0000 0.25755  0.13197  0.66599  Biso   1.000  Si
  Si2      1.0000 0.74245  0.63197  0.16599  Biso   1.000  Si
  Si3      1.0000 0.25755  0.36803  0.83401  Biso   1.000  Si
  Si4      1.0000 0.74245  0.86803  0.33401  Biso   1.000  Si
  O1       1.0000 0.57083  0.37598  0.81219  Biso   1.000  O 
  O2       1.0000 0.42917  0.87598  0.31219  Biso   1.000  O 
  O3       1.0000 0.57083  0.12402  0.68781  Biso   1.000  O 
  O4       1.0000 0.42917  0.62402  0.18781  Biso   1.000  O 
  O5       1.0000 0.87223  0.47957  0.27455  Biso   1.000  O 
  O6       1.0000 0.12777  0.97957  0.77455  Biso   1.000  O 
  O7       1.0000 0.87223  0.02043  0.22545  Biso   1.000  O 
  O8       1.0000 0.12777  0.52043  0.72545  Biso   1.000  O 
  O9       1.0000 0.18052  0.32130  0.04328  Biso   1.000  O 
  O10      1.0000 0.81948  0.82130  0.54328  Biso   1.000  O 
  O11      1.0000 0.18052  0.17870  0.45672  Biso   1.000  O 
  O12      1.0000 0.81948  0.67870  0.95672  Biso   1.000  O 
  O13      1.0000 0.85581  0.75000  0.25000  Biso   1.000  O 
  O14      1.0000 0.14419  0.25000  0.75000  Biso   1.000  O 
