data_image0
_cell_length_a       8.804
_cell_length_b       8.80395
_cell_length_c       8.80399
_cell_angle_alpha    106.765
_cell_angle_beta     106.765
_cell_angle_gamma    106.765

_symmetry_space_group_name_H-M    "P 1"
_symmetry_int_tables_number       1

loop_
  _symmetry_equiv_pos_as_xyz
  'x, y, z'

loop_
  _atom_site_label
  _atom_site_occupancy
  _atom_site_fract_x
  _atom_site_fract_y
  _atom_site_fract_z
  _atom_site_thermal_displace_type
  _atom_site_B_iso_or_equiv
  _atom_site_type_symbol
  Ag1      1.0000 0.57097  0.71065  0.18723  Biso   1.000  Ag
  Ag2      1.0000 0.28935  0.81276  0.42901  Biso   1.000  Ag
  Ag3      1.0000 0.81277  0.42901  0.28935  Biso   1.000  Ag
  Ag4      1.0000 0.42900  0.28935  0.81277  Biso   1.000  Ag
  Ag5      1.0000 0.71066  0.18723  0.57099  Biso   1.000  Ag
  Ag6      1.0000 0.18724  0.57099  0.71066  Biso   1.000  Ag
  Ag7      1.0000 0.49999  0.50001  0.49999  Biso   1.000  Ag
  Zr1      1.0000 0.64328  0.96370  0.88500  Biso   1.000  Zr
  Zr2      1.0000 0.03630  0.11500  0.35673  Biso   1.000  Zr
  Zr3      1.0000 0.11499  0.35669  0.03629  Biso   1.000  Zr
  Zr4      1.0000 0.35674  0.03630  0.11500  Biso   1.000  Zr
  Zr5      1.0000 0.96370  0.88500  0.64326  Biso   1.000  Zr
  Zr6      1.0000 0.88499  0.64323  0.96370  Biso   1.000  Zr
  F1       1.0000 0.45012  0.85226  0.97935  Biso   1.000  F 
  F2       1.0000 0.14773  0.02064  0.54987  Biso   1.000  F 
  F3       1.0000 0.02065  0.54988  0.14773  Biso   1.000  F 
  F4       1.0000 0.54989  0.14773  0.02065  Biso   1.000  F 
  F5       1.0000 0.85226  0.97934  0.45010  Biso   1.000  F 
  F6       1.0000 0.97935  0.45011  0.85226  Biso   1.000  F 
  F7       1.0000 0.44142  0.74409  0.67560  Biso   1.000  F 
  F8       1.0000 0.25592  0.32441  0.55859  Biso   1.000  F 
  F9       1.0000 0.32439  0.55859  0.25590  Biso   1.000  F 
  F10      1.0000 0.55859  0.25591  0.32441  Biso   1.000  F 
  F11      1.0000 0.74408  0.67559  0.44141  Biso   1.000  F 
  F12      1.0000 0.67559  0.44139  0.74408  Biso   1.000  F 
  F13      1.0000 0.52922  0.05551  0.71112  Biso   1.000  F 
  F14      1.0000 0.94448  0.28888  0.47078  Biso   1.000  F 
  F15      1.0000 0.28886  0.47077  0.94448  Biso   1.000  F 
  F16      1.0000 0.47077  0.94448  0.28888  Biso   1.000  F 
  F17      1.0000 0.05552  0.71112  0.52923  Biso   1.000  F 
  F18      1.0000 0.71111  0.52922  0.05552  Biso   1.000  F 
  F19      1.0000 0.84052  0.21122  0.95476  Biso   1.000  F 
  F20      1.0000 0.78880  0.04524  0.15947  Biso   1.000  F 
  F21      1.0000 0.04522  0.15946  0.78877  Biso   1.000  F 
  F22      1.0000 0.15946  0.78882  0.04523  Biso   1.000  F 
  F23      1.0000 0.21119  0.95478  0.84053  Biso   1.000  F 
  F24      1.0000 0.95477  0.84053  0.21118  Biso   1.000  F 
  F25      1.0000 0.69627  0.74853  0.90905  Biso   1.000  F 
  F26      1.0000 0.25149  0.09098  0.30376  Biso   1.000  F 
  F27      1.0000 0.09096  0.30378  0.25150  Biso   1.000  F 
  F28      1.0000 0.30378  0.25149  0.09096  Biso   1.000  F 
  F29      1.0000 0.74852  0.90905  0.69624  Biso   1.000  F 
  F30      1.0000 0.90905  0.69627  0.74854  Biso   1.000  F 
  F31      1.0000 0.00004  0.00013  0.00004  Biso   1.000  F 
