data_image0
_cell_length_a       7.81559
_cell_length_b       7.94606
_cell_length_c       11.1005
_cell_angle_alpha    90
_cell_angle_beta     90
_cell_angle_gamma    90

_symmetry_space_group_name_H-M    "P 1"
_symmetry_int_tables_number       1

loop_
  _symmetry_equiv_pos_as_xyz
  'x, y, z'

loop_
  _atom_site_label
  _atom_site_occupancy
  _atom_site_fract_x
  _atom_site_fract_y
  _atom_site_fract_z
  _atom_site_thermal_displace_type
  _atom_site_B_iso_or_equiv
  _atom_site_type_symbol
  Ag1      1.0000 0.38224  0.50000  0.54502  Biso   1.000  Ag
  Ag2      1.0000 0.61776  0.00000  0.04502  Biso   1.000  Ag
  Ag3      1.0000 0.89390  0.70506  0.36093  Biso   1.000  Ag
  Ag4      1.0000 0.89390  0.29494  0.36093  Biso   1.000  Ag
  Ag5      1.0000 0.10610  0.79494  0.86093  Biso   1.000  Ag
  Ag6      1.0000 0.10610  0.20506  0.86093  Biso   1.000  Ag
  Ag7      1.0000 0.46706  0.69694  0.76897  Biso   1.000  Ag
  Ag8      1.0000 0.46706  0.30306  0.76897  Biso   1.000  Ag
  Ag9      1.0000 0.53294  0.80306  0.26897  Biso   1.000  Ag
  Ag10     1.0000 0.53294  0.19694  0.26897  Biso   1.000  Ag
  Ag11     1.0000 0.83981  0.69798  0.66100  Biso   1.000  Ag
  Ag12     1.0000 0.83981  0.30202  0.66100  Biso   1.000  Ag
  Ag13     1.0000 0.16019  0.80202  0.16100  Biso   1.000  Ag
  Ag14     1.0000 0.16019  0.19798  0.16100  Biso   1.000  Ag
  Ag15     1.0000 0.27258  0.50000  0.98077  Biso   1.000  Ag
  Ag16     1.0000 0.72742  0.00000  0.48077  Biso   1.000  Ag
  Ge1      1.0000 0.75152  0.50000  0.01726  Biso   1.000  Ge
  Ge2      1.0000 0.24848  0.00000  0.51726  Biso   1.000  Ge
  Se1      1.0000 0.71618  0.50000  0.49843  Biso   1.000  Se
  Se2      1.0000 0.28382  0.00000  0.99843  Biso   1.000  Se
  Se3      1.0000 0.19005  0.50000  0.74643  Biso   1.000  Se
  Se4      1.0000 0.80995  0.00000  0.24643  Biso   1.000  Se
  Se5      1.0000 0.99698  0.50000  0.14892  Biso   1.000  Se
  Se6      1.0000 0.00302  0.00000  0.64892  Biso   1.000  Se
  Se7      1.0000 0.50896  0.50000  0.14813  Biso   1.000  Se
  Se8      1.0000 0.49104  0.00000  0.64813  Biso   1.000  Se
  Se9      1.0000 0.24848  0.74661  0.39853  Biso   1.000  Se
  Se10     1.0000 0.24848  0.25339  0.39853  Biso   1.000  Se
  Se11     1.0000 0.75152  0.75339  0.89853  Biso   1.000  Se
  Se12     1.0000 0.75152  0.24661  0.89853  Biso   1.000  Se
