data_image0
_cell_length_a       7.81988
_cell_length_b       7.9458
_cell_length_c       11.1185
_cell_angle_alpha    90
_cell_angle_beta     90
_cell_angle_gamma    90

_symmetry_space_group_name_H-M    "P 1"
_symmetry_int_tables_number       1

loop_
  _symmetry_equiv_pos_as_xyz
  'x, y, z'

loop_
  _atom_site_label
  _atom_site_occupancy
  _atom_site_fract_x
  _atom_site_fract_y
  _atom_site_fract_z
  _atom_site_thermal_displace_type
  _atom_site_B_iso_or_equiv
  _atom_site_type_symbol
  Ag1      1.0000 0.46365  0.69344  0.76636  Biso   1.000  Ag
  Ag2      1.0000 0.46365  0.30656  0.76636  Biso   1.000  Ag
  Ag3      1.0000 0.53635  0.80656  0.26636  Biso   1.000  Ag
  Ag4      1.0000 0.53635  0.19344  0.26636  Biso   1.000  Ag
  Ag5      1.0000 0.89366  0.70586  0.35615  Biso   1.000  Ag
  Ag6      1.0000 0.89366  0.29414  0.35615  Biso   1.000  Ag
  Ag7      1.0000 0.10634  0.79414  0.85615  Biso   1.000  Ag
  Ag8      1.0000 0.10634  0.20586  0.85615  Biso   1.000  Ag
  Ag9      1.0000 0.82993  0.69735  0.64932  Biso   1.000  Ag
  Ag10     1.0000 0.82993  0.30265  0.64932  Biso   1.000  Ag
  Ag11     1.0000 0.17007  0.80265  0.14932  Biso   1.000  Ag
  Ag12     1.0000 0.17007  0.19735  0.14932  Biso   1.000  Ag
  Ag13     1.0000 0.37978  0.50000  0.54405  Biso   1.000  Ag
  Ag14     1.0000 0.62022  0.00000  0.04405  Biso   1.000  Ag
  Ag15     1.0000 0.27626  0.50000  0.97216  Biso   1.000  Ag
  Ag16     1.0000 0.72374  0.00000  0.47216  Biso   1.000  Ag
  Sn1      1.0000 0.75195  0.50000  0.01380  Biso   1.000  Sn
  Sn2      1.0000 0.24805  0.00000  0.51380  Biso   1.000  Sn
  Se1      1.0000 0.24728  0.73335  0.38734  Biso   1.000  Se
  Se2      1.0000 0.24728  0.26665  0.38734  Biso   1.000  Se
  Se3      1.0000 0.75272  0.76665  0.88734  Biso   1.000  Se
  Se4      1.0000 0.75272  0.23335  0.88734  Biso   1.000  Se
  Se5      1.0000 0.01103  0.50000  0.15265  Biso   1.000  Se
  Se6      1.0000 0.98897  0.00000  0.65265  Biso   1.000  Se
  Se7      1.0000 0.49474  0.50000  0.15222  Biso   1.000  Se
  Se8      1.0000 0.50526  0.00000  0.65222  Biso   1.000  Se
  Se9      1.0000 0.18282  0.50000  0.73992  Biso   1.000  Se
  Se10     1.0000 0.81718  0.00000  0.23992  Biso   1.000  Se
  Se11     1.0000 0.70852  0.50000  0.48725  Biso   1.000  Se
  Se12     1.0000 0.29148  0.00000  0.98725  Biso   1.000  Se
