data_image0
_cell_length_a       9.64169
_cell_length_b       9.64169
_cell_length_c       5.7982
_cell_angle_alpha    75.4916
_cell_angle_beta     75.4916
_cell_angle_gamma    41.5347

_symmetry_space_group_name_H-M    "P 1"
_symmetry_int_tables_number       1

loop_
  _symmetry_equiv_pos_as_xyz
  'x, y, z'

loop_
  _atom_site_label
  _atom_site_occupancy
  _atom_site_fract_x
  _atom_site_fract_y
  _atom_site_fract_z
  _atom_site_thermal_displace_type
  _atom_site_B_iso_or_equiv
  _atom_site_type_symbol
  Ag1      1.0000 0.80445  0.80445  0.71678  Biso   1.000  Ag
  Ag2      1.0000 0.19555  0.19555  0.28322  Biso   1.000  Ag
  Ag3      1.0000 0.04505  0.60241  0.29073  Biso   1.000  Ag
  Ag4      1.0000 0.60241  0.04505  0.29073  Biso   1.000  Ag
  Ag5      1.0000 0.95495  0.39759  0.70927  Biso   1.000  Ag
  Ag6      1.0000 0.39759  0.95495  0.70927  Biso   1.000  Ag
  Ag7      1.0000 0.50000  0.50000  0.00000  Biso   1.000  Ag
  Ag8      1.0000 0.72716  0.27284  0.50000  Biso   1.000  Ag
  Ag9      1.0000 0.27284  0.72716  0.50000  Biso   1.000  Ag
  I1       1.0000 0.00000  0.00000  0.00000  Biso   1.000  I 
  Ge1      1.0000 0.34294  0.34294  0.77999  Biso   1.000  Ge
  Ge2      1.0000 0.65706  0.65706  0.22001  Biso   1.000  Ge
  O1       1.0000 0.37543  0.37543  0.04778  Biso   1.000  O 
  O2       1.0000 0.62457  0.62457  0.95222  Biso   1.000  O 
  O3       1.0000 0.16231  0.59047  0.59912  Biso   1.000  O 
  O4       1.0000 0.59047  0.16231  0.59912  Biso   1.000  O 
  O5       1.0000 0.83769  0.40953  0.40088  Biso   1.000  O 
  O6       1.0000 0.40953  0.83769  0.40088  Biso   1.000  O 
  O7       1.0000 0.23883  0.23883  0.87710  Biso   1.000  O 
  O8       1.0000 0.76117  0.76117  0.12290  Biso   1.000  O 
