data_image0
_cell_length_a       11.0253
_cell_length_b       11.0253
_cell_length_c       11.0253
_cell_angle_alpha    96.6331
_cell_angle_beta     96.6331
_cell_angle_gamma    140.262

_symmetry_space_group_name_H-M    "P 1"
_symmetry_int_tables_number       1

loop_
  _symmetry_equiv_pos_as_xyz
  'x, y, z'

loop_
  _atom_site_label
  _atom_site_occupancy
  _atom_site_fract_x
  _atom_site_fract_y
  _atom_site_fract_z
  _atom_site_thermal_displace_type
  _atom_site_B_iso_or_equiv
  _atom_site_type_symbol
  Ba1      1.0000 0.76175  0.09250  0.85425  Biso   1.000  Ba
  Ba2      1.0000 0.09250  0.23825  0.33075  Biso   1.000  Ba
  Ba3      1.0000 0.90750  0.76175  0.66925  Biso   1.000  Ba
  Ba4      1.0000 0.23825  0.90750  0.14575  Biso   1.000  Ba
  Ba5      1.0000 0.28526  0.44826  0.73352  Biso   1.000  Ba
  Ba6      1.0000 0.44826  0.71474  0.16300  Biso   1.000  Ba
  Ba7      1.0000 0.55174  0.28526  0.83700  Biso   1.000  Ba
  Ba8      1.0000 0.71474  0.55174  0.26648  Biso   1.000  Ba
  Ba9      1.0000 0.75000  0.25000  0.50000  Biso   1.000  Ba
  Ba10     1.0000 0.25000  0.75000  0.50000  Biso   1.000  Ba
  Al1      1.0000 0.32247  0.15817  0.48064  Biso   1.000  Al
  Al2      1.0000 0.15817  0.67753  0.83570  Biso   1.000  Al
  Al3      1.0000 0.84183  0.32247  0.16430  Biso   1.000  Al
  Al4      1.0000 0.67753  0.84183  0.51936  Biso   1.000  Al
  Al5      1.0000 0.24627  0.24627  0.00000  Biso   1.000  Al
  Al6      1.0000 0.75373  0.75373  0.00000  Biso   1.000  Al
  F1       1.0000 0.69377  0.62947  0.83893  Biso   1.000  F 
  F2       1.0000 0.14516  0.30623  0.93571  Biso   1.000  F 
  F3       1.0000 0.37053  0.20946  0.06429  Biso   1.000  F 
  F4       1.0000 0.20946  0.14516  0.83893  Biso   1.000  F 
  F5       1.0000 0.30623  0.37053  0.16107  Biso   1.000  F 
  F6       1.0000 0.85484  0.69377  0.06429  Biso   1.000  F 
  F7       1.0000 0.62947  0.79054  0.93571  Biso   1.000  F 
  F8       1.0000 0.79054  0.85484  0.16107  Biso   1.000  F 
  F9       1.0000 0.57720  0.36375  0.59936  Biso   1.000  F 
  F10      1.0000 0.02216  0.42280  0.78655  Biso   1.000  F 
  F11      1.0000 0.63625  0.23561  0.21345  Biso   1.000  F 
  F12      1.0000 0.23561  0.02216  0.59936  Biso   1.000  F 
  F13      1.0000 0.42280  0.63625  0.40064  Biso   1.000  F 
  F14      1.0000 0.97784  0.57720  0.21345  Biso   1.000  F 
  F15      1.0000 0.36375  0.76439  0.78655  Biso   1.000  F 
  F16      1.0000 0.76439  0.97784  0.40064  Biso   1.000  F 
  F17      1.0000 0.92721  0.04850  0.64000  Biso   1.000  F 
  F18      1.0000 0.71279  0.07279  0.12129  Biso   1.000  F 
  F19      1.0000 0.95150  0.59150  0.87871  Biso   1.000  F 
  F20      1.0000 0.59150  0.71279  0.64000  Biso   1.000  F 
  F21      1.0000 0.07279  0.95150  0.36000  Biso   1.000  F 
  F22      1.0000 0.28721  0.92721  0.87871  Biso   1.000  F 
  F23      1.0000 0.04850  0.40850  0.12129  Biso   1.000  F 
  F24      1.0000 0.40850  0.28721  0.36000  Biso   1.000  F 
  F25      1.0000 0.27081  0.27009  0.54090  Biso   1.000  F 
  F26      1.0000 0.27009  0.72919  0.99929  Biso   1.000  F 
  F27      1.0000 0.72991  0.27081  0.00071  Biso   1.000  F 
  F28      1.0000 0.72919  0.72991  0.45910  Biso   1.000  F 
  F29      1.0000 0.62765  0.95455  0.58221  Biso   1.000  F 
  F30      1.0000 0.95455  0.37235  0.32690  Biso   1.000  F 
  F31      1.0000 0.04545  0.62765  0.67310  Biso   1.000  F 
  F32      1.0000 0.37235  0.04545  0.41779  Biso   1.000  F 
  F33      1.0000 0.11604  0.42610  0.54214  Biso   1.000  F 
  F34      1.0000 0.42610  0.88396  0.31005  Biso   1.000  F 
  F35      1.0000 0.57390  0.11604  0.68995  Biso   1.000  F 
  F36      1.0000 0.88396  0.57390  0.45786  Biso   1.000  F 
  F37      1.0000 0.00000  0.00000  0.00000  Biso   1.000  F 
  F38      1.0000 0.50000  0.50000  0.00000  Biso   1.000  F 
