data_image0
_cell_length_a       8.26478
_cell_length_b       8.26478
_cell_length_c       8.26478
_cell_angle_alpha    135.979
_cell_angle_beta     130.738
_cell_angle_gamma    68.1804

_symmetry_space_group_name_H-M    "P 1"
_symmetry_int_tables_number       1

loop_
  _symmetry_equiv_pos_as_xyz
  'x, y, z'

loop_
  _atom_site_label
  _atom_site_occupancy
  _atom_site_fract_x
  _atom_site_fract_y
  _atom_site_fract_z
  _atom_site_thermal_displace_type
  _atom_site_B_iso_or_equiv
  _atom_site_type_symbol
  Na1      1.0000 0.00258  0.81168  0.19090  Biso   1.000  Na
  Na2      1.0000 0.99742  0.18832  0.80910  Biso   1.000  Na
  Na3      1.0000 0.37921  0.68832  0.69090  Biso   1.000  Na
  Na4      1.0000 0.62079  0.31168  0.30910  Biso   1.000  Na
  Na5      1.0000 0.50000  0.75000  0.25000  Biso   1.000  Na
  Na6      1.0000 0.50000  0.25000  0.75000  Biso   1.000  Na
  Al1      1.0000 0.00000  0.25000  0.25000  Biso   1.000  Al
  Al2      1.0000 0.00000  0.75000  0.75000  Biso   1.000  Al
  As1      1.0000 0.09797  0.39459  0.70338  Biso   1.000  As
  As2      1.0000 0.90203  0.60541  0.29662  Biso   1.000  As
  As3      1.0000 0.30879  0.10541  0.20338  Biso   1.000  As
  As4      1.0000 0.69121  0.89459  0.79662  Biso   1.000  As
