data_image0
_cell_length_a       9.89435
_cell_length_b       6.81431
_cell_length_c       11.8826
_cell_angle_alpha    74.5974
_cell_angle_beta     90
_cell_angle_gamma    90

_symmetry_space_group_name_H-M    "P 1"
_symmetry_int_tables_number       1

loop_
  _symmetry_equiv_pos_as_xyz
  'x, y, z'

loop_
  _atom_site_label
  _atom_site_occupancy
  _atom_site_fract_x
  _atom_site_fract_y
  _atom_site_fract_z
  _atom_site_thermal_displace_type
  _atom_site_B_iso_or_equiv
  _atom_site_type_symbol
  As1      1.0000 0.42166  0.02547  0.68188  Biso   1.000  As
  As2      1.0000 0.92166  0.97453  0.31812  Biso   1.000  As
  As3      1.0000 0.57834  0.97453  0.31812  Biso   1.000  As
  As4      1.0000 0.07834  0.02547  0.68188  Biso   1.000  As
  As5      1.0000 0.25000  0.99511  0.96407  Biso   1.000  As
  As6      1.0000 0.75000  0.00489  0.03593  Biso   1.000  As
  S1       1.0000 0.25000  0.28522  0.68716  Biso   1.000  S 
  S2       1.0000 0.75000  0.71478  0.31284  Biso   1.000  S 
  S3       1.0000 0.25000  0.85680  0.62039  Biso   1.000  S 
  S4       1.0000 0.75000  0.14320  0.37961  Biso   1.000  S 
  S5       1.0000 0.43387  0.89785  0.87745  Biso   1.000  S 
  S6       1.0000 0.93387  0.10215  0.12255  Biso   1.000  S 
  S7       1.0000 0.56613  0.10215  0.12255  Biso   1.000  S 
  S8       1.0000 0.06613  0.89785  0.87745  Biso   1.000  S 
  S9       1.0000 0.25000  0.32940  0.84742  Biso   1.000  S 
  S10      1.0000 0.75000  0.67060  0.15258  Biso   1.000  S 
  Al1      1.0000 0.75000  0.52339  0.70803  Biso   1.000  Al
  Al2      1.0000 0.25000  0.47661  0.29197  Biso   1.000  Al
  Cl1      1.0000 0.92950  0.66086  0.61367  Biso   1.000  Cl
  Cl2      1.0000 0.42950  0.33914  0.38633  Biso   1.000  Cl
  Cl3      1.0000 0.07050  0.33914  0.38633  Biso   1.000  Cl
  Cl4      1.0000 0.57050  0.66086  0.61367  Biso   1.000  Cl
  Cl5      1.0000 0.75000  0.20704  0.71044  Biso   1.000  Cl
  Cl6      1.0000 0.25000  0.79296  0.28956  Biso   1.000  Cl
  Cl7      1.0000 0.75000  0.55624  0.88265  Biso   1.000  Cl
  Cl8      1.0000 0.25000  0.44376  0.11735  Biso   1.000  Cl
