data_image0
_cell_length_a       10.6085
_cell_length_b       10.6085
_cell_length_c       13.4319
_cell_angle_alpha    90
_cell_angle_beta     90
_cell_angle_gamma    38.1637

_symmetry_space_group_name_H-M    "P 1"
_symmetry_int_tables_number       1

loop_
  _symmetry_equiv_pos_as_xyz
  'x, y, z'

loop_
  _atom_site_label
  _atom_site_occupancy
  _atom_site_fract_x
  _atom_site_fract_y
  _atom_site_fract_z
  _atom_site_thermal_displace_type
  _atom_site_B_iso_or_equiv
  _atom_site_type_symbol
  Ba1      1.0000 0.32981  0.67019  0.84724  Biso   1.000  Ba
  Ba2      1.0000 0.67019  0.32981  0.15276  Biso   1.000  Ba
  Ba3      1.0000 0.17019  0.82981  0.34724  Biso   1.000  Ba
  Ba4      1.0000 0.82981  0.17019  0.65276  Biso   1.000  Ba
  Ba5      1.0000 0.01128  0.63728  0.62997  Biso   1.000  Ba
  Ba6      1.0000 0.63728  0.01128  0.37003  Biso   1.000  Ba
  Ba7      1.0000 0.13728  0.51128  0.12997  Biso   1.000  Ba
  Ba8      1.0000 0.51128  0.13728  0.87003  Biso   1.000  Ba
  Ba9      1.0000 0.98872  0.36272  0.37003  Biso   1.000  Ba
  Ba10     1.0000 0.36272  0.98872  0.62997  Biso   1.000  Ba
  Ba11     1.0000 0.86272  0.48872  0.87003  Biso   1.000  Ba
  Ba12     1.0000 0.48872  0.86272  0.12997  Biso   1.000  Ba
  Al1      1.0000 0.41712  0.41712  0.50000  Biso   1.000  Al
  Al2      1.0000 0.91712  0.91712  0.00000  Biso   1.000  Al
  Al3      1.0000 0.58288  0.58288  0.50000  Biso   1.000  Al
  Al4      1.0000 0.08288  0.08288  0.00000  Biso   1.000  Al
  As1      1.0000 0.29667  0.70333  0.59611  Biso   1.000  As
  As2      1.0000 0.70333  0.29667  0.40389  Biso   1.000  As
  As3      1.0000 0.20333  0.79667  0.09611  Biso   1.000  As
  As4      1.0000 0.79667  0.20333  0.90389  Biso   1.000  As
  As5      1.0000 0.84786  0.46539  0.61816  Biso   1.000  As
  As6      1.0000 0.46539  0.84786  0.38184  Biso   1.000  As
  As7      1.0000 0.96539  0.34786  0.11816  Biso   1.000  As
  As8      1.0000 0.34786  0.96539  0.88184  Biso   1.000  As
  As9      1.0000 0.15214  0.53461  0.38184  Biso   1.000  As
  As10     1.0000 0.53461  0.15214  0.61816  Biso   1.000  As
  As11     1.0000 0.03461  0.65214  0.88184  Biso   1.000  As
  As12     1.0000 0.65214  0.03461  0.11816  Biso   1.000  As
