data_image0
_cell_length_a       8.89568
_cell_length_b       8.89568
_cell_length_c       8.89568
_cell_angle_alpha    137.048
_cell_angle_beta     135.537
_cell_angle_gamma    63.5363

_symmetry_space_group_name_H-M    "P 1"
_symmetry_int_tables_number       1

loop_
  _symmetry_equiv_pos_as_xyz
  'x, y, z'

loop_
  _atom_site_label
  _atom_site_occupancy
  _atom_site_fract_x
  _atom_site_fract_y
  _atom_site_fract_z
  _atom_site_thermal_displace_type
  _atom_site_B_iso_or_equiv
  _atom_site_type_symbol
  K1       1.0000 0.08905  0.82451  0.26454  Biso   1.000  K 
  K2       1.0000 0.91095  0.17549  0.73546  Biso   1.000  K 
  K3       1.0000 0.44003  0.67549  0.76454  Biso   1.000  K 
  K4       1.0000 0.55997  0.32451  0.23546  Biso   1.000  K 
  Na1      1.0000 0.50000  0.75000  0.25000  Biso   1.000  Na
  Na2      1.0000 0.50000  0.25000  0.75000  Biso   1.000  Na
  Al1      1.0000 0.00000  0.25000  0.25000  Biso   1.000  Al
  Al2      1.0000 0.00000  0.75000  0.75000  Biso   1.000  Al
  As1      1.0000 0.10570  0.40435  0.70135  Biso   1.000  As
  As2      1.0000 0.89430  0.59565  0.29865  Biso   1.000  As
  As3      1.0000 0.29700  0.09565  0.20135  Biso   1.000  As
  As4      1.0000 0.70300  0.90435  0.79865  Biso   1.000  As
