data_image0
_cell_length_a       10.3288
_cell_length_b       7.44808
_cell_length_c       5.71805
_cell_angle_alpha    79.522
_cell_angle_beta     90
_cell_angle_gamma    90

_symmetry_space_group_name_H-M    "P 1"
_symmetry_int_tables_number       1

loop_
  _symmetry_equiv_pos_as_xyz
  'x, y, z'

loop_
  _atom_site_label
  _atom_site_occupancy
  _atom_site_fract_x
  _atom_site_fract_y
  _atom_site_fract_z
  _atom_site_thermal_displace_type
  _atom_site_B_iso_or_equiv
  _atom_site_type_symbol
  Cu1      1.0000 0.10943  0.53923  0.40934  Biso   1.000  Cu
  Cu2      1.0000 0.89057  0.53923  0.90934  Biso   1.000  Cu
  Cu3      1.0000 0.60943  0.46077  0.09066  Biso   1.000  Cu
  Cu4      1.0000 0.39057  0.46077  0.59066  Biso   1.000  Cu
  Al1      1.0000 0.07144  0.85268  0.94116  Biso   1.000  Al
  Al2      1.0000 0.57144  0.14732  0.55884  Biso   1.000  Al
  Al3      1.0000 0.42856  0.14732  0.05884  Biso   1.000  Al
  Al4      1.0000 0.92856  0.85268  0.44116  Biso   1.000  Al
  As1      1.0000 0.14030  0.27239  0.92121  Biso   1.000  As
  As2      1.0000 0.64030  0.72761  0.57879  Biso   1.000  As
  As3      1.0000 0.35970  0.72761  0.07879  Biso   1.000  As
  As4      1.0000 0.85970  0.27239  0.42121  Biso   1.000  As
  O1       1.0000 0.20970  0.37237  0.65038  Biso   1.000  O 
  O2       1.0000 0.70970  0.62763  0.84962  Biso   1.000  O 
  O3       1.0000 0.29030  0.62763  0.34962  Biso   1.000  O 
  O4       1.0000 0.79030  0.37237  0.15038  Biso   1.000  O 
  O5       1.0000 0.04710  0.09264  0.87573  Biso   1.000  O 
  O6       1.0000 0.54710  0.90736  0.62427  Biso   1.000  O 
  O7       1.0000 0.45290  0.90736  0.12427  Biso   1.000  O 
  O8       1.0000 0.95290  0.09264  0.37573  Biso   1.000  O 
  O9       1.0000 0.05502  0.43010  0.04330  Biso   1.000  O 
  O10      1.0000 0.55502  0.56990  0.45670  Biso   1.000  O 
  O11      1.0000 0.44498  0.56990  0.95670  Biso   1.000  O 
  O12      1.0000 0.94498  0.43010  0.54330  Biso   1.000  O 
  O13      1.0000 0.02753  0.76300  0.23785  Biso   1.000  O 
  O14      1.0000 0.52753  0.23700  0.26215  Biso   1.000  O 
  O15      1.0000 0.47247  0.23700  0.76215  Biso   1.000  O 
  O16      1.0000 0.97247  0.76300  0.73785  Biso   1.000  O 
  O17      1.0000 0.23607  0.80415  0.88736  Biso   1.000  O 
  O18      1.0000 0.73607  0.19585  0.61264  Biso   1.000  O 
  O19      1.0000 0.26393  0.19585  0.11264  Biso   1.000  O 
  O20      1.0000 0.76393  0.80415  0.38736  Biso   1.000  O 
