data_image0
_cell_length_a       10.2189
_cell_length_b       10.2189
_cell_length_c       10.2189
_cell_angle_alpha    107.799
_cell_angle_beta     107.799
_cell_angle_gamma    112.871

_symmetry_space_group_name_H-M    "P 1"
_symmetry_int_tables_number       1

loop_
  _symmetry_equiv_pos_as_xyz
  'x, y, z'

loop_
  _atom_site_label
  _atom_site_occupancy
  _atom_site_fract_x
  _atom_site_fract_y
  _atom_site_fract_z
  _atom_site_thermal_displace_type
  _atom_site_B_iso_or_equiv
  _atom_site_type_symbol
  Bi1      1.0000 0.80492  0.51955  0.59051  Biso   1.000  Bi
  Bi2      1.0000 0.92904  0.21441  0.40949  Biso   1.000  Bi
  Bi3      1.0000 0.78559  0.19508  0.71463  Biso   1.000  Bi
  Bi4      1.0000 0.48045  0.07096  0.28537  Biso   1.000  Bi
  S1       1.0000 0.01282  0.42935  0.69600  Biso   1.000  S 
  S2       1.0000 0.73336  0.31682  0.30400  Biso   1.000  S 
  S3       1.0000 0.68318  0.98718  0.41654  Biso   1.000  S 
  S4       1.0000 0.57065  0.26664  0.58346  Biso   1.000  S 
  Cl1      1.0000 0.22564  0.80727  0.30135  Biso   1.000  Cl
  Cl2      1.0000 0.50592  0.92428  0.69865  Biso   1.000  Cl
  Cl3      1.0000 0.07572  0.77436  0.58164  Biso   1.000  Cl
  Cl4      1.0000 0.19273  0.49408  0.41836  Biso   1.000  Cl
  Cl5      1.0000 0.83297  0.44684  0.01033  Biso   1.000  Cl
  Cl6      1.0000 0.43651  0.82264  0.98967  Biso   1.000  Cl
  Cl7      1.0000 0.17736  0.16703  0.61386  Biso   1.000  Cl
  Cl8      1.0000 0.55316  0.56349  0.38614  Biso   1.000  Cl
  Cl9      1.0000 0.02446  0.77126  0.94564  Biso   1.000  Cl
  Cl10     1.0000 0.82562  0.07882  0.05436  Biso   1.000  Cl
  Cl11     1.0000 0.92118  0.97554  0.74680  Biso   1.000  Cl
  Cl12     1.0000 0.22874  0.17438  0.25320  Biso   1.000  Cl
  Cl13     1.0000 0.85762  0.80225  0.21528  Biso   1.000  Cl
  Cl14     1.0000 0.58698  0.64235  0.78472  Biso   1.000  Cl
  Cl15     1.0000 0.35765  0.14238  0.94463  Biso   1.000  Cl
  Cl16     1.0000 0.19775  0.41302  0.05537  Biso   1.000  Cl
  Al1      1.0000 0.98032  0.70966  0.11961  Biso   1.000  Al
  Al2      1.0000 0.59005  0.86071  0.88039  Biso   1.000  Al
  Al3      1.0000 0.13929  0.01968  0.72934  Biso   1.000  Al
  Al4      1.0000 0.29034  0.40995  0.27066  Biso   1.000  Al
