data_image0
_cell_length_a       5.41191
_cell_length_b       5.41191
_cell_length_c       13.421
_cell_angle_alpha    90
_cell_angle_beta     90
_cell_angle_gamma    120

_symmetry_space_group_name_H-M    "P 1"
_symmetry_int_tables_number       1

loop_
  _symmetry_equiv_pos_as_xyz
  'x, y, z'

loop_
  _atom_site_label
  _atom_site_occupancy
  _atom_site_fract_x
  _atom_site_fract_y
  _atom_site_fract_z
  _atom_site_thermal_displace_type
  _atom_site_B_iso_or_equiv
  _atom_site_type_symbol
  Bi1      1.0000 0.00000  0.00000  0.99444  Biso   1.000  Bi
  Bi2      1.0000 0.00000  0.00000  0.49444  Biso   1.000  Bi
  Bi3      1.0000 0.66667  0.33333  0.82778  Biso   1.000  Bi
  Bi4      1.0000 0.66667  0.33333  0.32778  Biso   1.000  Bi
  Bi5      1.0000 0.33333  0.66667  0.16111  Biso   1.000  Bi
  Bi6      1.0000 0.33333  0.66667  0.66111  Biso   1.000  Bi
  Al1      1.0000 0.00000  0.00000  0.22140  Biso   1.000  Al
  Al2      1.0000 0.00000  0.00000  0.72140  Biso   1.000  Al
  Al3      1.0000 0.66667  0.33333  0.05473  Biso   1.000  Al
  Al4      1.0000 0.66667  0.33333  0.55473  Biso   1.000  Al
  Al5      1.0000 0.33333  0.66667  0.38806  Biso   1.000  Al
  Al6      1.0000 0.33333  0.66667  0.88806  Biso   1.000  Al
  O1       1.0000 0.55156  0.01030  0.96022  Biso   1.000  O 
  O2       1.0000 0.45874  0.01030  0.46022  Biso   1.000  O 
  O3       1.0000 0.55156  0.54126  0.46022  Biso   1.000  O 
  O4       1.0000 0.98970  0.44844  0.46022  Biso   1.000  O 
  O5       1.0000 0.45874  0.44844  0.96022  Biso   1.000  O 
  O6       1.0000 0.98970  0.54126  0.96022  Biso   1.000  O 
  O7       1.0000 0.12540  0.34363  0.79355  Biso   1.000  O 
  O8       1.0000 0.21823  0.87460  0.79355  Biso   1.000  O 
  O9       1.0000 0.65637  0.78178  0.79355  Biso   1.000  O 
  O10      1.0000 0.12540  0.78177  0.29355  Biso   1.000  O 
  O11      1.0000 0.65637  0.87460  0.29355  Biso   1.000  O 
  O12      1.0000 0.21823  0.34363  0.29355  Biso   1.000  O 
  O13      1.0000 0.79207  0.67696  0.12689  Biso   1.000  O 
  O14      1.0000 0.88489  0.20793  0.12689  Biso   1.000  O 
  O15      1.0000 0.32304  0.11511  0.12689  Biso   1.000  O 
  O16      1.0000 0.79207  0.11511  0.62689  Biso   1.000  O 
  O17      1.0000 0.32304  0.20793  0.62689  Biso   1.000  O 
  O18      1.0000 0.88489  0.67696  0.62689  Biso   1.000  O 
