data_image0
_cell_length_a       5.93236
_cell_length_b       5.93236
_cell_length_c       20.0103
_cell_angle_alpha    90
_cell_angle_beta     90
_cell_angle_gamma    120

_symmetry_space_group_name_H-M    "P 1"
_symmetry_int_tables_number       1

loop_
  _symmetry_equiv_pos_as_xyz
  'x, y, z'

loop_
  _atom_site_label
  _atom_site_occupancy
  _atom_site_fract_x
  _atom_site_fract_y
  _atom_site_fract_z
  _atom_site_thermal_displace_type
  _atom_site_B_iso_or_equiv
  _atom_site_type_symbol
  In1      1.0000 0.33333  0.66667  0.93261  Biso   1.000  In
  In2      1.0000 0.66667  0.33333  0.06739  Biso   1.000  In
  In3      1.0000 0.66667  0.33333  0.43261  Biso   1.000  In
  In4      1.0000 0.33333  0.66667  0.56739  Biso   1.000  In
  Ba1      1.0000 0.00000  0.00000  0.50000  Biso   1.000  Ba
  Ba2      1.0000 0.00000  0.00000  0.00000  Biso   1.000  Ba
  Ba3      1.0000 0.33333  0.66667  0.75000  Biso   1.000  Ba
  Ba4      1.0000 0.66667  0.33333  0.25000  Biso   1.000  Ba
  Ba5      1.0000 0.33333  0.66667  0.10542  Biso   1.000  Ba
  Ba6      1.0000 0.66667  0.33333  0.89458  Biso   1.000  Ba
  Ba7      1.0000 0.66667  0.33333  0.60542  Biso   1.000  Ba
  Ba8      1.0000 0.33333  0.66667  0.39458  Biso   1.000  Ba
  Al1      1.0000 0.00000  0.00000  0.33635  Biso   1.000  Al
  Al2      1.0000 0.00000  0.00000  0.66365  Biso   1.000  Al
  Al3      1.0000 0.00000  0.00000  0.83635  Biso   1.000  Al
  Al4      1.0000 0.00000  0.00000  0.16365  Biso   1.000  Al
  O1       1.0000 0.50000  0.50000  0.50000  Biso   1.000  O 
  O2       1.0000 0.50000  0.00000  0.50000  Biso   1.000  O 
  O3       1.0000 0.00000  0.50000  0.50000  Biso   1.000  O 
  O4       1.0000 0.50000  0.50000  0.00000  Biso   1.000  O 
  O5       1.0000 0.50000  0.00000  0.00000  Biso   1.000  O 
  O6       1.0000 0.00000  0.50000  0.00000  Biso   1.000  O 
  O7       1.0000 0.16296  0.83704  0.86500  Biso   1.000  O 
  O8       1.0000 0.16296  0.32593  0.86500  Biso   1.000  O 
  O9       1.0000 0.67407  0.83704  0.86500  Biso   1.000  O 
  O10      1.0000 0.83704  0.16296  0.13500  Biso   1.000  O 
  O11      1.0000 0.83704  0.67407  0.13500  Biso   1.000  O 
  O12      1.0000 0.32593  0.16296  0.13500  Biso   1.000  O 
  O13      1.0000 0.83704  0.16296  0.36500  Biso   1.000  O 
  O14      1.0000 0.83704  0.67407  0.36500  Biso   1.000  O 
  O15      1.0000 0.32593  0.16296  0.36500  Biso   1.000  O 
  O16      1.0000 0.16296  0.83704  0.63500  Biso   1.000  O 
  O17      1.0000 0.16296  0.32593  0.63500  Biso   1.000  O 
  O18      1.0000 0.67407  0.83704  0.63500  Biso   1.000  O 
  O19      1.0000 0.00000  0.00000  0.25000  Biso   1.000  O 
  O20      1.0000 0.00000  0.00000  0.75000  Biso   1.000  O 
