data_image0
_cell_length_a       5.95781
_cell_length_b       5.95781
_cell_length_c       10.547
_cell_angle_alpha    90
_cell_angle_beta     90
_cell_angle_gamma    90

_symmetry_space_group_name_H-M    "P 1"
_symmetry_int_tables_number       1

loop_
  _symmetry_equiv_pos_as_xyz
  'x, y, z'

loop_
  _atom_site_label
  _atom_site_occupancy
  _atom_site_fract_x
  _atom_site_fract_y
  _atom_site_fract_z
  _atom_site_thermal_displace_type
  _atom_site_B_iso_or_equiv
  _atom_site_type_symbol
  Cu1      1.0000 0.50000  0.50000  0.00000  Biso   1.000  Cu
  Cu2      1.0000 0.50000  0.50000  0.50000  Biso   1.000  Cu
  Al1      1.0000 0.00000  0.50000  0.75000  Biso   1.000  Al
  Al2      1.0000 0.50000  0.00000  0.25000  Biso   1.000  Al
  Br1      1.0000 0.22904  0.73030  0.87447  Biso   1.000  Br
  Br2      1.0000 0.77096  0.26970  0.87447  Biso   1.000  Br
  Br3      1.0000 0.22904  0.26970  0.62553  Biso   1.000  Br
  Br4      1.0000 0.77096  0.73030  0.62553  Biso   1.000  Br
  Br5      1.0000 0.73030  0.77096  0.12553  Biso   1.000  Br
  Br6      1.0000 0.26970  0.22904  0.12553  Biso   1.000  Br
  Br7      1.0000 0.26970  0.77096  0.37447  Biso   1.000  Br
  Br8      1.0000 0.73030  0.22904  0.37447  Biso   1.000  Br
