data_image0
_cell_length_a       10.2531
_cell_length_b       10.2531
_cell_length_c       8.94922
_cell_angle_alpha    90
_cell_angle_beta     90
_cell_angle_gamma    128.894

_symmetry_space_group_name_H-M    "P 1"
_symmetry_int_tables_number       1

loop_
  _symmetry_equiv_pos_as_xyz
  'x, y, z'

loop_
  _atom_site_label
  _atom_site_occupancy
  _atom_site_fract_x
  _atom_site_fract_y
  _atom_site_fract_z
  _atom_site_thermal_displace_type
  _atom_site_B_iso_or_equiv
  _atom_site_type_symbol
  Al1      1.0000 0.81385  0.18615  0.75000  Biso   1.000  Al
  Al2      1.0000 0.18615  0.81385  0.25000  Biso   1.000  Al
  Nb1      1.0000 0.61011  0.38989  0.75000  Biso   1.000  Nb
  Nb2      1.0000 0.38989  0.61011  0.25000  Biso   1.000  Nb
  Br1      1.0000 0.52517  0.06620  0.75000  Biso   1.000  Br
  Br2      1.0000 0.06620  0.52517  0.25000  Biso   1.000  Br
  Br3      1.0000 0.47483  0.93380  0.25000  Biso   1.000  Br
  Br4      1.0000 0.93380  0.47483  0.75000  Biso   1.000  Br
  Br5      1.0000 0.63136  0.36864  0.47621  Biso   1.000  Br
  Br6      1.0000 0.36864  0.63136  0.52379  Biso   1.000  Br
  Br7      1.0000 0.63136  0.36864  0.02379  Biso   1.000  Br
  Br8      1.0000 0.36864  0.63136  0.97621  Biso   1.000  Br
  Br9      1.0000 0.31513  0.25789  0.75000  Biso   1.000  Br
  Br10     1.0000 0.25789  0.31513  0.25000  Biso   1.000  Br
  Br11     1.0000 0.68487  0.74211  0.25000  Biso   1.000  Br
  Br12     1.0000 0.74211  0.68487  0.75000  Biso   1.000  Br
  Br13     1.0000 0.88102  0.11898  0.96352  Biso   1.000  Br
  Br14     1.0000 0.11898  0.88102  0.03648  Biso   1.000  Br
  Br15     1.0000 0.88102  0.11898  0.53648  Biso   1.000  Br
  Br16     1.0000 0.11898  0.88102  0.46352  Biso   1.000  Br
