data_image0
_cell_length_a       4.93848
_cell_length_b       4.93848
_cell_length_c       9.57132
_cell_angle_alpha    90
_cell_angle_beta     90
_cell_angle_gamma    120

_symmetry_space_group_name_H-M    "P 1"
_symmetry_int_tables_number       1

loop_
  _symmetry_equiv_pos_as_xyz
  'x, y, z'

loop_
  _atom_site_label
  _atom_site_occupancy
  _atom_site_fract_x
  _atom_site_fract_y
  _atom_site_fract_z
  _atom_site_thermal_displace_type
  _atom_site_B_iso_or_equiv
  _atom_site_type_symbol
  Ba1      1.0000 0.33333  0.66667  0.75002  Biso   1.000  Ba
  Ba2      1.0000 0.33333  0.66667  0.24998  Biso   1.000  Ba
  Al1      1.0000 0.00000  0.00000  0.00000  Biso   1.000  Al
  Al2      1.0000 0.66667  0.33333  0.50000  Biso   1.000  Al
  F1       1.0000 0.66667  0.33333  0.69451  Biso   1.000  F 
  F2       1.0000 0.66667  0.33333  0.30549  Biso   1.000  F 
  F3       1.0000 0.00000  0.00000  0.80544  Biso   1.000  F 
  F4       1.0000 0.00000  0.00000  0.19456  Biso   1.000  F 
  O1       1.0000 0.94881  0.33744  0.00000  Biso   1.000  O 
  O2       1.0000 0.38862  0.05119  0.00000  Biso   1.000  O 
  O3       1.0000 0.66256  0.61138  0.00000  Biso   1.000  O 
  O4       1.0000 0.71804  0.72192  0.50000  Biso   1.000  O 
  O5       1.0000 0.00388  0.28196  0.50000  Biso   1.000  O 
  O6       1.0000 0.27808  0.99612  0.50000  Biso   1.000  O 
  B1       1.0000 0.66667  0.33333  0.00000  Biso   1.000  B 
  B2       1.0000 0.00000  0.00000  0.50000  Biso   1.000  B 
