data_image0
_cell_length_a       7.1955
_cell_length_b       7.1955
_cell_length_c       7.1955
_cell_angle_alpha    131.999
_cell_angle_beta     111.327
_cell_angle_gamma    88.1197

_symmetry_space_group_name_H-M    "P 1"
_symmetry_int_tables_number       1

loop_
  _symmetry_equiv_pos_as_xyz
  'x, y, z'

loop_
  _atom_site_label
  _atom_site_occupancy
  _atom_site_fract_x
  _atom_site_fract_y
  _atom_site_fract_z
  _atom_site_thermal_displace_type
  _atom_site_B_iso_or_equiv
  _atom_site_type_symbol
  Li1      1.0000 0.89879  0.25000  0.64879  Biso   1.000  Li
  Li2      1.0000 0.10121  0.75000  0.35121  Biso   1.000  Li
  Al1      1.0000 0.50000  1.00000  0.00000  Biso   1.000  Al
  Al2      1.0000 0.50000  0.50000  0.50000  Biso   1.000  Al
  B1       1.0000 0.53586  0.82805  0.20483  Biso   1.000  B 
  B2       1.0000 0.46414  0.66897  0.29219  Biso   1.000  B 
  B3       1.0000 0.12323  0.32805  0.29219  Biso   1.000  B 
  B4       1.0000 0.87677  0.16897  0.20483  Biso   1.000  B 
  B5       1.0000 0.46414  0.17195  0.79517  Biso   1.000  B 
  B6       1.0000 0.53586  0.33103  0.70781  Biso   1.000  B 
  B7       1.0000 0.87677  0.67195  0.70781  Biso   1.000  B 
  B8       1.0000 0.12323  0.83103  0.79517  Biso   1.000  B 
  B9       1.0000 0.72666  0.72126  0.32334  Biso   1.000  B 
  B10      1.0000 0.27334  0.59668  0.99460  Biso   1.000  B 
  B11      1.0000 0.89792  0.22126  0.99460  Biso   1.000  B 
  B12      1.0000 0.10208  0.09668  0.32334  Biso   1.000  B 
  B13      1.0000 0.27334  0.27874  0.67666  Biso   1.000  B 
  B14      1.0000 0.72666  0.40332  0.00540  Biso   1.000  B 
  B15      1.0000 0.10208  0.77874  0.00540  Biso   1.000  B 
  B16      1.0000 0.89792  0.90332  0.67666  Biso   1.000  B 
  B17      1.0000 0.41448  0.58503  0.82946  Biso   1.000  B 
  B18      1.0000 0.58552  0.41497  0.17054  Biso   1.000  B 
  B19      1.0000 0.25557  0.08503  0.17054  Biso   1.000  B 
  B20      1.0000 0.74443  0.91497  0.82946  Biso   1.000  B 
  B21      1.0000 0.69829  0.66644  0.03185  Biso   1.000  B 
  B22      1.0000 0.30171  0.33356  0.96815  Biso   1.000  B 
  B23      1.0000 0.13460  0.16644  0.96815  Biso   1.000  B 
  B24      1.0000 0.86540  0.83356  0.03185  Biso   1.000  B 
  B25      1.0000 0.26881  0.64921  0.61960  Biso   1.000  B 
  B26      1.0000 0.73119  0.35079  0.38040  Biso   1.000  B 
  B27      1.0000 0.52961  0.14921  0.38040  Biso   1.000  B 
  B28      1.0000 0.47039  0.85079  0.61960  Biso   1.000  B 
