data_image0
_cell_length_a       11.6421
_cell_length_b       11.6421
_cell_length_c       13.6605
_cell_angle_alpha    81.7324
_cell_angle_beta     81.7324
_cell_angle_gamma    42.6497

_symmetry_space_group_name_H-M    "P 1"
_symmetry_int_tables_number       1

loop_
  _symmetry_equiv_pos_as_xyz
  'x, y, z'

loop_
  _atom_site_label
  _atom_site_occupancy
  _atom_site_fract_x
  _atom_site_fract_y
  _atom_site_fract_z
  _atom_site_thermal_displace_type
  _atom_site_B_iso_or_equiv
  _atom_site_type_symbol
  Te1      1.0000 0.94368  0.19716  0.03877  Biso   1.000  Te
  Te2      1.0000 0.80284  0.05632  0.46123  Biso   1.000  Te
  Te3      1.0000 0.05632  0.80284  0.96123  Biso   1.000  Te
  Te4      1.0000 0.19716  0.94368  0.53877  Biso   1.000  Te
  Te5      1.0000 0.54743  0.30048  0.96719  Biso   1.000  Te
  Te6      1.0000 0.69952  0.45257  0.53281  Biso   1.000  Te
  Te7      1.0000 0.45257  0.69952  0.03281  Biso   1.000  Te
  Te8      1.0000 0.30048  0.54743  0.46719  Biso   1.000  Te
  Sb1      1.0000 0.81525  0.05780  0.10950  Biso   1.000  Sb
  Sb2      1.0000 0.94220  0.18475  0.39050  Biso   1.000  Sb
  Sb3      1.0000 0.18475  0.94220  0.89050  Biso   1.000  Sb
  Sb4      1.0000 0.05780  0.81525  0.60950  Biso   1.000  Sb
  Sb5      1.0000 0.68640  0.42952  0.89020  Biso   1.000  Sb
  Sb6      1.0000 0.57048  0.31360  0.60980  Biso   1.000  Sb
  Sb7      1.0000 0.31360  0.57048  0.10980  Biso   1.000  Sb
  Sb8      1.0000 0.42952  0.68640  0.39020  Biso   1.000  Sb
  Br1      1.0000 0.62407  0.37593  0.25000  Biso   1.000  Br
  Br2      1.0000 0.37593  0.62407  0.75000  Biso   1.000  Br
  Br3      1.0000 0.87436  0.12564  0.75000  Biso   1.000  Br
  Br4      1.0000 0.12564  0.87436  0.25000  Biso   1.000  Br
  Cl1      1.0000 0.13743  0.46047  0.08673  Biso   1.000  Cl
  Cl2      1.0000 0.53953  0.86257  0.41327  Biso   1.000  Cl
  Cl3      1.0000 0.86257  0.53953  0.91327  Biso   1.000  Cl
  Cl4      1.0000 0.46047  0.13743  0.58673  Biso   1.000  Cl
  Cl5      1.0000 0.71066  0.87530  0.07840  Biso   1.000  Cl
  Cl6      1.0000 0.12470  0.28934  0.42160  Biso   1.000  Cl
  Cl7      1.0000 0.28934  0.12470  0.92160  Biso   1.000  Cl
  Cl8      1.0000 0.87530  0.71066  0.57840  Biso   1.000  Cl
  Cl9      1.0000 0.94513  0.71309  0.28443  Biso   1.000  Cl
  Cl10     1.0000 0.28691  0.05487  0.21557  Biso   1.000  Cl
  Cl11     1.0000 0.05487  0.28691  0.71557  Biso   1.000  Cl
  Cl12     1.0000 0.71309  0.94513  0.78443  Biso   1.000  Cl
  Cl13     1.0000 0.80249  0.54070  0.21993  Biso   1.000  Cl
  Cl14     1.0000 0.45930  0.19751  0.28007  Biso   1.000  Cl
  Cl15     1.0000 0.19751  0.45930  0.78007  Biso   1.000  Cl
  Cl16     1.0000 0.54070  0.80249  0.71993  Biso   1.000  Cl
  Al1      1.0000 0.89523  0.64581  0.17145  Biso   1.000  Al
  Al2      1.0000 0.35419  0.10477  0.32855  Biso   1.000  Al
  Al3      1.0000 0.10477  0.35419  0.82855  Biso   1.000  Al
  Al4      1.0000 0.64581  0.89523  0.67145  Biso   1.000  Al
