data_image0
_cell_length_a       11.6708
_cell_length_b       11.6708
_cell_length_c       13.855
_cell_angle_alpha    81.1001
_cell_angle_beta     81.1001
_cell_angle_gamma    43.6525

_symmetry_space_group_name_H-M    "P 1"
_symmetry_int_tables_number       1

loop_
  _symmetry_equiv_pos_as_xyz
  'x, y, z'

loop_
  _atom_site_label
  _atom_site_occupancy
  _atom_site_fract_x
  _atom_site_fract_y
  _atom_site_fract_z
  _atom_site_thermal_displace_type
  _atom_site_B_iso_or_equiv
  _atom_site_type_symbol
  Bi1      1.0000 0.31311  0.55480  0.61221  Biso   1.000  Bi
  Bi2      1.0000 0.44520  0.68689  0.88779  Biso   1.000  Bi
  Bi3      1.0000 0.68689  0.44520  0.38779  Biso   1.000  Bi
  Bi4      1.0000 0.55480  0.31311  0.11221  Biso   1.000  Bi
  Bi5      1.0000 0.18741  0.93069  0.38732  Biso   1.000  Bi
  Bi6      1.0000 0.06931  0.81259  0.11268  Biso   1.000  Bi
  Bi7      1.0000 0.81259  0.06931  0.61268  Biso   1.000  Bi
  Bi8      1.0000 0.93069  0.18741  0.88732  Biso   1.000  Bi
  Te1      1.0000 0.44481  0.69923  0.53762  Biso   1.000  Te
  Te2      1.0000 0.30077  0.55519  0.96238  Biso   1.000  Te
  Te3      1.0000 0.55519  0.30077  0.46238  Biso   1.000  Te
  Te4      1.0000 0.69923  0.44481  0.03762  Biso   1.000  Te
  Te5      1.0000 0.04437  0.79809  0.46950  Biso   1.000  Te
  Te6      1.0000 0.20191  0.95563  0.03050  Biso   1.000  Te
  Te7      1.0000 0.95563  0.20191  0.53050  Biso   1.000  Te
  Te8      1.0000 0.79809  0.04437  0.96950  Biso   1.000  Te
  Br1      1.0000 0.87732  0.12268  0.25000  Biso   1.000  Br
  Br2      1.0000 0.12268  0.87732  0.75000  Biso   1.000  Br
  Br3      1.0000 0.37296  0.62704  0.25000  Biso   1.000  Br
  Br4      1.0000 0.62704  0.37296  0.75000  Biso   1.000  Br
  Cl1      1.0000 0.20880  0.36647  0.58206  Biso   1.000  Cl
  Cl2      1.0000 0.63353  0.79120  0.91794  Biso   1.000  Cl
  Cl3      1.0000 0.79120  0.63353  0.41794  Biso   1.000  Cl
  Cl4      1.0000 0.36647  0.20880  0.08206  Biso   1.000  Cl
  Cl5      1.0000 0.62842  0.96019  0.59219  Biso   1.000  Cl
  Cl6      1.0000 0.03981  0.37158  0.90781  Biso   1.000  Cl
  Cl7      1.0000 0.37158  0.03981  0.40781  Biso   1.000  Cl
  Cl8      1.0000 0.96019  0.62842  0.09219  Biso   1.000  Cl
  Cl9      1.0000 0.44274  0.21899  0.77942  Biso   1.000  Cl
  Cl10     1.0000 0.78101  0.55726  0.72058  Biso   1.000  Cl
  Cl11     1.0000 0.55726  0.78101  0.22058  Biso   1.000  Cl
  Cl12     1.0000 0.21899  0.44274  0.27942  Biso   1.000  Cl
  Cl13     1.0000 0.29949  0.03956  0.73039  Biso   1.000  Cl
  Cl14     1.0000 0.96044  0.70051  0.76961  Biso   1.000  Cl
  Cl15     1.0000 0.70051  0.96044  0.26961  Biso   1.000  Cl
  Cl16     1.0000 0.03956  0.29949  0.23039  Biso   1.000  Cl
  Al1      1.0000 0.39184  0.14483  0.67391  Biso   1.000  Al
  Al2      1.0000 0.85517  0.60816  0.82609  Biso   1.000  Al
  Al3      1.0000 0.60816  0.85517  0.32609  Biso   1.000  Al
  Al4      1.0000 0.14483  0.39184  0.17391  Biso   1.000  Al
