data_image0
_cell_length_a       10.2924
_cell_length_b       10.2924
_cell_length_c       13.0389
_cell_angle_alpha    90
_cell_angle_beta     90
_cell_angle_gamma    38.4227

_symmetry_space_group_name_H-M    "P 1"
_symmetry_int_tables_number       1

loop_
  _symmetry_equiv_pos_as_xyz
  'x, y, z'

loop_
  _atom_site_label
  _atom_site_occupancy
  _atom_site_fract_x
  _atom_site_fract_y
  _atom_site_fract_z
  _atom_site_thermal_displace_type
  _atom_site_B_iso_or_equiv
  _atom_site_type_symbol
  Ba1      1.0000 0.33628  0.66372  0.84474  Biso   1.000  Ba
  Ba2      1.0000 0.66372  0.33628  0.15526  Biso   1.000  Ba
  Ba3      1.0000 0.16372  0.83628  0.34474  Biso   1.000  Ba
  Ba4      1.0000 0.83628  0.16372  0.65526  Biso   1.000  Ba
  Ba5      1.0000 0.00803  0.63992  0.63023  Biso   1.000  Ba
  Ba6      1.0000 0.63992  0.00803  0.36977  Biso   1.000  Ba
  Ba7      1.0000 0.13992  0.50803  0.13023  Biso   1.000  Ba
  Ba8      1.0000 0.50803  0.13992  0.86977  Biso   1.000  Ba
  Ba9      1.0000 0.99197  0.36008  0.36977  Biso   1.000  Ba
  Ba10     1.0000 0.36008  0.99197  0.63023  Biso   1.000  Ba
  Ba11     1.0000 0.86008  0.49197  0.86977  Biso   1.000  Ba
  Ba12     1.0000 0.49197  0.86008  0.13023  Biso   1.000  Ba
  Al1      1.0000 0.41793  0.41793  0.50000  Biso   1.000  Al
  Al2      1.0000 0.91793  0.91793  0.00000  Biso   1.000  Al
  Al3      1.0000 0.58207  0.58207  0.50000  Biso   1.000  Al
  Al4      1.0000 0.08207  0.08207  0.00000  Biso   1.000  Al
  P1       1.0000 0.29782  0.70218  0.59300  Biso   1.000  P 
  P2       1.0000 0.70218  0.29782  0.40700  Biso   1.000  P 
  P3       1.0000 0.20218  0.79782  0.09300  Biso   1.000  P 
  P4       1.0000 0.79782  0.20218  0.90700  Biso   1.000  P 
  P5       1.0000 0.84156  0.46919  0.61711  Biso   1.000  P 
  P6       1.0000 0.46919  0.84156  0.38289  Biso   1.000  P 
  P7       1.0000 0.96919  0.34156  0.11711  Biso   1.000  P 
  P8       1.0000 0.34156  0.96919  0.88289  Biso   1.000  P 
  P9       1.0000 0.15844  0.53081  0.38289  Biso   1.000  P 
  P10      1.0000 0.53081  0.15844  0.61711  Biso   1.000  P 
  P11      1.0000 0.03081  0.65844  0.88289  Biso   1.000  P 
  P12      1.0000 0.65844  0.03081  0.11711  Biso   1.000  P 
