data_image0
_cell_length_a       7.37049
_cell_length_b       7.75279
_cell_length_c       10.8397
_cell_angle_alpha    82.7138
_cell_angle_beta     90
_cell_angle_gamma    90

_symmetry_space_group_name_H-M    "P 1"
_symmetry_int_tables_number       1

loop_
  _symmetry_equiv_pos_as_xyz
  'x, y, z'

loop_
  _atom_site_label
  _atom_site_occupancy
  _atom_site_fract_x
  _atom_site_fract_y
  _atom_site_fract_z
  _atom_site_thermal_displace_type
  _atom_site_B_iso_or_equiv
  _atom_site_type_symbol
  Al1      1.0000 0.59006  0.30539  0.05104  Biso   1.000  Al
  Al2      1.0000 0.09006  0.69461  0.44896  Biso   1.000  Al
  Al3      1.0000 0.40994  0.69461  0.94896  Biso   1.000  Al
  Al4      1.0000 0.90994  0.30539  0.55104  Biso   1.000  Al
  Br1      1.0000 0.41708  0.10438  0.16531  Biso   1.000  Br
  Br2      1.0000 0.91708  0.89562  0.33469  Biso   1.000  Br
  Br3      1.0000 0.58292  0.89562  0.83469  Biso   1.000  Br
  Br4      1.0000 0.08292  0.10438  0.66531  Biso   1.000  Br
  Br5      1.0000 0.88344  0.25100  0.01170  Biso   1.000  Br
  Br6      1.0000 0.38344  0.74900  0.48830  Biso   1.000  Br
  Br7      1.0000 0.11656  0.74900  0.98830  Biso   1.000  Br
  Br8      1.0000 0.61656  0.25100  0.51170  Biso   1.000  Br
  Br9      1.0000 0.56700  0.58037  0.14052  Biso   1.000  Br
  Br10     1.0000 0.06700  0.41963  0.35948  Biso   1.000  Br
  Br11     1.0000 0.43300  0.41963  0.85948  Biso   1.000  Br
  Br12     1.0000 0.93300  0.58037  0.64052  Biso   1.000  Br
