data_image0
_cell_length_a       5.79887
_cell_length_b       7.81574
_cell_length_c       11.23
_cell_angle_alpha    87.7247
_cell_angle_beta     76.8134
_cell_angle_gamma    80.5983

_symmetry_space_group_name_H-M    "P 1"
_symmetry_int_tables_number       1

loop_
  _symmetry_equiv_pos_as_xyz
  'x, y, z'

loop_
  _atom_site_label
  _atom_site_occupancy
  _atom_site_fract_x
  _atom_site_fract_y
  _atom_site_fract_z
  _atom_site_thermal_displace_type
  _atom_site_B_iso_or_equiv
  _atom_site_type_symbol
  Se1      1.0000 0.99425  0.00949  0.99798  Biso   1.000  Se
  Se2      1.0000 0.81520  0.56771  0.53457  Biso   1.000  Se
  Cl1      1.0000 0.93817  0.73361  0.97042  Biso   1.000  Cl
  Cl2      1.0000 0.61410  0.14896  0.87633  Biso   1.000  Cl
  Cl3      1.0000 0.02212  0.36889  0.96499  Biso   1.000  Cl
  Cl4      1.0000 0.28313  0.91629  0.08852  Biso   1.000  Cl
  Cl5      1.0000 0.73036  0.08092  0.17038  Biso   1.000  Cl
  Cl6      1.0000 0.24190  0.01140  0.69621  Biso   1.000  Cl
  Cl7      1.0000 0.76251  0.28445  0.54092  Biso   1.000  Cl
  Cl8      1.0000 0.10004  0.51883  0.63557  Biso   1.000  Cl
  Cl9      1.0000 0.43631  0.73990  0.41717  Biso   1.000  Cl
  Cl10     1.0000 0.83762  0.92569  0.53144  Biso   1.000  Cl
  Cl11     1.0000 0.01426  0.54829  0.34472  Biso   1.000  Cl
  Cl12     1.0000 0.50118  0.58768  0.80015  Biso   1.000  Cl
  Cl13     1.0000 0.42482  0.48213  0.11640  Biso   1.000  Cl
  Cl14     1.0000 0.33508  0.16802  0.38943  Biso   1.000  Cl
  Al1      1.0000 0.40675  0.40010  0.94070  Biso   1.000  Al
  Al2      1.0000 0.21931  0.96814  0.51230  Biso   1.000  Al
