data_image0
_cell_length_a       4.51557
_cell_length_b       12.9662
_cell_length_c       14.294
_cell_angle_alpha    90
_cell_angle_beta     90
_cell_angle_gamma    90

_symmetry_space_group_name_H-M    "P 1"
_symmetry_int_tables_number       1

loop_
  _symmetry_equiv_pos_as_xyz
  'x, y, z'

loop_
  _atom_site_label
  _atom_site_occupancy
  _atom_site_fract_x
  _atom_site_fract_y
  _atom_site_fract_z
  _atom_site_thermal_displace_type
  _atom_site_B_iso_or_equiv
  _atom_site_type_symbol
  Sb1      1.0000 0.25000  0.54099  0.14919  Biso   1.000  Sb
  Sb2      1.0000 0.25000  0.04099  0.35081  Biso   1.000  Sb
  Sb3      1.0000 0.75000  0.45901  0.85081  Biso   1.000  Sb
  Sb4      1.0000 0.75000  0.95901  0.64919  Biso   1.000  Sb
  Sb5      1.0000 0.25000  0.61280  0.60893  Biso   1.000  Sb
  Sb6      1.0000 0.25000  0.11280  0.89107  Biso   1.000  Sb
  Sb7      1.0000 0.75000  0.38720  0.39107  Biso   1.000  Sb
  Sb8      1.0000 0.75000  0.88720  0.10893  Biso   1.000  Sb
  Sb9      1.0000 0.25000  0.75627  0.88144  Biso   1.000  Sb
  Sb10     1.0000 0.25000  0.25627  0.61856  Biso   1.000  Sb
  Sb11     1.0000 0.75000  0.24373  0.11856  Biso   1.000  Sb
  Sb12     1.0000 0.75000  0.74373  0.38144  Biso   1.000  Sb
  Ca1      1.0000 0.25000  0.77264  0.21974  Biso   1.000  Ca
  Ca2      1.0000 0.25000  0.27264  0.28026  Biso   1.000  Ca
  Ca3      1.0000 0.75000  0.22736  0.78026  Biso   1.000  Ca
  Ca4      1.0000 0.75000  0.72736  0.71974  Biso   1.000  Ca
  Ca5      1.0000 0.25000  0.35003  0.99692  Biso   1.000  Ca
  Ca6      1.0000 0.25000  0.85003  0.50308  Biso   1.000  Ca
  Ca7      1.0000 0.75000  0.64997  0.00308  Biso   1.000  Ca
  Ca8      1.0000 0.75000  0.14997  0.49692  Biso   1.000  Ca
  Ca9      1.0000 0.25000  0.55950  0.38807  Biso   1.000  Ca
  Ca10     1.0000 0.25000  0.05950  0.11193  Biso   1.000  Ca
  Ca11     1.0000 0.75000  0.44050  0.61193  Biso   1.000  Ca
  Ca12     1.0000 0.75000  0.94050  0.88807  Biso   1.000  Ca
  Al1      1.0000 0.25000  0.56728  0.79679  Biso   1.000  Al
  Al2      1.0000 0.25000  0.06728  0.70321  Biso   1.000  Al
  Al3      1.0000 0.75000  0.43272  0.20321  Biso   1.000  Al
  Al4      1.0000 0.75000  0.93272  0.29679  Biso   1.000  Al
