data_image0
_cell_length_a       7.27254
_cell_length_b       10.9551
_cell_length_c       10.7621
_cell_angle_alpha    90
_cell_angle_beta     90
_cell_angle_gamma    90

_symmetry_space_group_name_H-M    "P 1"
_symmetry_int_tables_number       1

loop_
  _symmetry_equiv_pos_as_xyz
  'x, y, z'

loop_
  _atom_site_label
  _atom_site_occupancy
  _atom_site_fract_x
  _atom_site_fract_y
  _atom_site_fract_z
  _atom_site_thermal_displace_type
  _atom_site_B_iso_or_equiv
  _atom_site_type_symbol
  S1       1.0000 0.75000  0.87283  0.34122  Biso   1.000  S 
  S2       1.0000 0.75000  0.37283  0.15878  Biso   1.000  S 
  S3       1.0000 0.25000  0.12717  0.65878  Biso   1.000  S 
  S4       1.0000 0.25000  0.62717  0.84122  Biso   1.000  S 
  S5       1.0000 0.75000  0.84613  0.06372  Biso   1.000  S 
  S6       1.0000 0.75000  0.34613  0.43628  Biso   1.000  S 
  S7       1.0000 0.25000  0.15387  0.93628  Biso   1.000  S 
  S8       1.0000 0.25000  0.65387  0.56372  Biso   1.000  S 
  N1       1.0000 0.75000  0.85764  0.20284  Biso   1.000  N 
  N2       1.0000 0.75000  0.35764  0.29716  Biso   1.000  N 
  N3       1.0000 0.25000  0.14236  0.79716  Biso   1.000  N 
  N4       1.0000 0.25000  0.64236  0.70284  Biso   1.000  N 
  Al1      1.0000 0.25000  0.60747  0.20124  Biso   1.000  Al
  Al2      1.0000 0.25000  0.10747  0.29876  Biso   1.000  Al
  Al3      1.0000 0.75000  0.39253  0.79876  Biso   1.000  Al
  Al4      1.0000 0.75000  0.89253  0.70124  Biso   1.000  Al
  Cl1      1.0000 0.01298  0.60848  0.32081  Biso   1.000  Cl
  Cl2      1.0000 0.48702  0.10848  0.17919  Biso   1.000  Cl
  Cl3      1.0000 0.51298  0.39152  0.67919  Biso   1.000  Cl
  Cl4      1.0000 0.98702  0.89152  0.82081  Biso   1.000  Cl
  Cl5      1.0000 0.98702  0.39152  0.67919  Biso   1.000  Cl
  Cl6      1.0000 0.51298  0.89152  0.82081  Biso   1.000  Cl
  Cl7      1.0000 0.48702  0.60848  0.32081  Biso   1.000  Cl
  Cl8      1.0000 0.01298  0.10848  0.17919  Biso   1.000  Cl
  Cl9      1.0000 0.25000  0.76924  0.08735  Biso   1.000  Cl
  Cl10     1.0000 0.25000  0.26924  0.41265  Biso   1.000  Cl
  Cl11     1.0000 0.75000  0.23076  0.91265  Biso   1.000  Cl
  Cl12     1.0000 0.75000  0.73076  0.58735  Biso   1.000  Cl
  Cl13     1.0000 0.25000  0.45140  0.07902  Biso   1.000  Cl
  Cl14     1.0000 0.25000  0.95140  0.42098  Biso   1.000  Cl
  Cl15     1.0000 0.75000  0.54860  0.92098  Biso   1.000  Cl
  Cl16     1.0000 0.75000  0.04860  0.57902  Biso   1.000  Cl
