data_image0
_cell_length_a       10.2437
_cell_length_b       10.2437
_cell_length_c       6.20074
_cell_angle_alpha    90
_cell_angle_beta     90
_cell_angle_gamma    120

_symmetry_space_group_name_H-M    "P 1"
_symmetry_int_tables_number       1

loop_
  _symmetry_equiv_pos_as_xyz
  'x, y, z'

loop_
  _atom_site_label
  _atom_site_occupancy
  _atom_site_fract_x
  _atom_site_fract_y
  _atom_site_fract_z
  _atom_site_thermal_displace_type
  _atom_site_B_iso_or_equiv
  _atom_site_type_symbol
  La1      1.0000 0.76503  0.14257  0.73075  Biso   1.000  La
  La2      1.0000 0.37753  0.23497  0.73075  Biso   1.000  La
  La3      1.0000 0.85743  0.62247  0.73075  Biso   1.000  La
  La4      1.0000 0.23497  0.85743  0.23075  Biso   1.000  La
  La5      1.0000 0.62247  0.76503  0.23075  Biso   1.000  La
  La6      1.0000 0.14257  0.37753  0.23075  Biso   1.000  La
  Cd1      1.0000 0.00000  0.00000  0.51316  Biso   1.000  Cd
  Cd2      1.0000 0.00000  0.00000  0.01316  Biso   1.000  Cd
  Al1      1.0000 0.66667  0.33333  0.14690  Biso   1.000  Al
  Al2      1.0000 0.33333  0.66667  0.64690  Biso   1.000  Al
  S1       1.0000 0.84678  0.09750  0.27843  Biso   1.000  S 
  S2       1.0000 0.25072  0.15322  0.27843  Biso   1.000  S 
  S3       1.0000 0.90250  0.74928  0.27843  Biso   1.000  S 
  S4       1.0000 0.15322  0.90250  0.77843  Biso   1.000  S 
  S5       1.0000 0.74928  0.84678  0.77843  Biso   1.000  S 
  S6       1.0000 0.09750  0.25072  0.77843  Biso   1.000  S 
  S7       1.0000 0.89717  0.41730  0.99444  Biso   1.000  S 
  S8       1.0000 0.52013  0.10283  0.99444  Biso   1.000  S 
  S9       1.0000 0.58271  0.47987  0.99444  Biso   1.000  S 
  S10      1.0000 0.10283  0.58271  0.49444  Biso   1.000  S 
  S11      1.0000 0.47987  0.89717  0.49444  Biso   1.000  S 
  S12      1.0000 0.41729  0.52013  0.49444  Biso   1.000  S 
  S13      1.0000 0.66667  0.33333  0.51106  Biso   1.000  S 
  S14      1.0000 0.33333  0.66667  0.01106  Biso   1.000  S 
