data_image0
_cell_length_a       16.2885
_cell_length_b       6.91741
_cell_length_c       7.87698
_cell_angle_alpha    75.3824
_cell_angle_beta     90
_cell_angle_gamma    90

_symmetry_space_group_name_H-M    "P 1"
_symmetry_int_tables_number       1

loop_
  _symmetry_equiv_pos_as_xyz
  'x, y, z'

loop_
  _atom_site_label
  _atom_site_occupancy
  _atom_site_fract_x
  _atom_site_fract_y
  _atom_site_fract_z
  _atom_site_thermal_displace_type
  _atom_site_B_iso_or_equiv
  _atom_site_type_symbol
  S1       1.0000 0.55420  0.96219  0.25264  Biso   1.000  S 
  S2       1.0000 0.94580  0.96219  0.75264  Biso   1.000  S 
  S3       1.0000 0.44580  0.03781  0.74736  Biso   1.000  S 
  S4       1.0000 0.05420  0.03781  0.24736  Biso   1.000  S 
  S5       1.0000 0.60504  0.85338  0.91865  Biso   1.000  S 
  S6       1.0000 0.89496  0.85338  0.41865  Biso   1.000  S 
  S7       1.0000 0.39496  0.14662  0.08135  Biso   1.000  S 
  S8       1.0000 0.10504  0.14662  0.58135  Biso   1.000  S 
  N1       1.0000 0.60035  0.88242  0.10979  Biso   1.000  N 
  N2       1.0000 0.89965  0.88242  0.60979  Biso   1.000  N 
  N3       1.0000 0.39965  0.11758  0.89021  Biso   1.000  N 
  N4       1.0000 0.10035  0.11758  0.39021  Biso   1.000  N 
  N5       1.0000 0.46944  0.06883  0.20584  Biso   1.000  N 
  N6       1.0000 0.03056  0.06883  0.70584  Biso   1.000  N 
  N7       1.0000 0.53056  0.93117  0.79416  Biso   1.000  N 
  N8       1.0000 0.96944  0.93117  0.29416  Biso   1.000  N 
  Al1      1.0000 0.65060  0.40132  0.64648  Biso   1.000  Al
  Al2      1.0000 0.84940  0.40132  0.14648  Biso   1.000  Al
  Al3      1.0000 0.34940  0.59868  0.35352  Biso   1.000  Al
  Al4      1.0000 0.15060  0.59868  0.85352  Biso   1.000  Al
  Cl1      1.0000 0.57894  0.39725  0.88091  Biso   1.000  Cl
  Cl2      1.0000 0.92106  0.39725  0.38091  Biso   1.000  Cl
  Cl3      1.0000 0.42106  0.60275  0.11909  Biso   1.000  Cl
  Cl4      1.0000 0.07894  0.60275  0.61909  Biso   1.000  Cl
  Cl5      1.0000 0.74017  0.16759  0.72566  Biso   1.000  Cl
  Cl6      1.0000 0.75983  0.16759  0.22566  Biso   1.000  Cl
  Cl7      1.0000 0.25983  0.83241  0.27434  Biso   1.000  Cl
  Cl8      1.0000 0.24017  0.83241  0.77434  Biso   1.000  Cl
  Cl9      1.0000 0.57199  0.32955  0.45027  Biso   1.000  Cl
  Cl10     1.0000 0.92801  0.32955  0.95027  Biso   1.000  Cl
  Cl11     1.0000 0.42801  0.67045  0.54973  Biso   1.000  Cl
  Cl12     1.0000 0.07199  0.67045  0.04973  Biso   1.000  Cl
  Cl13     1.0000 0.70080  0.69474  0.55138  Biso   1.000  Cl
  Cl14     1.0000 0.79920  0.69474  0.05138  Biso   1.000  Cl
  Cl15     1.0000 0.29920  0.30526  0.44862  Biso   1.000  Cl
  Cl16     1.0000 0.20080  0.30526  0.94862  Biso   1.000  Cl
