data_image0
_cell_length_a       7.62798
_cell_length_b       7.62798
_cell_length_c       5.30667
_cell_angle_alpha    90
_cell_angle_beta     90
_cell_angle_gamma    90

_symmetry_space_group_name_H-M    "P 1"
_symmetry_int_tables_number       1

loop_
  _symmetry_equiv_pos_as_xyz
  'x, y, z'

loop_
  _atom_site_label
  _atom_site_occupancy
  _atom_site_fract_x
  _atom_site_fract_y
  _atom_site_fract_z
  _atom_site_thermal_displace_type
  _atom_site_B_iso_or_equiv
  _atom_site_type_symbol
  Cs1      1.0000 0.00000  0.50000  0.74479  Biso   1.000  Cs
  Cs2      1.0000 0.50000  0.00000  0.25521  Biso   1.000  Cs
  Al1      1.0000 0.00000  0.00000  0.00000  Biso   1.000  Al
  Al2      1.0000 0.50000  0.50000  0.00000  Biso   1.000  Al
  N1       1.0000 0.59312  0.33904  0.77250  Biso   1.000  N 
  N2       1.0000 0.40688  0.66096  0.77250  Biso   1.000  N 
  N3       1.0000 0.83904  0.90688  0.77250  Biso   1.000  N 
  N4       1.0000 0.16096  0.09312  0.77250  Biso   1.000  N 
  N5       1.0000 0.90688  0.16096  0.22750  Biso   1.000  N 
  N6       1.0000 0.09312  0.83904  0.22750  Biso   1.000  N 
  N7       1.0000 0.66096  0.59312  0.22750  Biso   1.000  N 
  N8       1.0000 0.33904  0.40688  0.22750  Biso   1.000  N 
  H1       1.0000 0.52843  0.32304  0.60532  Biso   1.000  H 
  H2       1.0000 0.47158  0.67696  0.60532  Biso   1.000  H 
  H3       1.0000 0.82304  0.97158  0.60532  Biso   1.000  H 
  H4       1.0000 0.17696  0.02842  0.60532  Biso   1.000  H 
  H5       1.0000 0.97158  0.17696  0.39468  Biso   1.000  H 
  H6       1.0000 0.02842  0.82304  0.39468  Biso   1.000  H 
  H7       1.0000 0.67696  0.52843  0.39468  Biso   1.000  H 
  H8       1.0000 0.32304  0.47158  0.39468  Biso   1.000  H 
  H9       1.0000 0.66431  0.22862  0.80800  Biso   1.000  H 
  H10      1.0000 0.33569  0.77138  0.80800  Biso   1.000  H 
  H11      1.0000 0.72862  0.83569  0.80800  Biso   1.000  H 
  H12      1.0000 0.27138  0.16431  0.80800  Biso   1.000  H 
  H13      1.0000 0.83569  0.27138  0.19200  Biso   1.000  H 
  H14      1.0000 0.16431  0.72862  0.19200  Biso   1.000  H 
  H15      1.0000 0.77138  0.66431  0.19200  Biso   1.000  H 
  H16      1.0000 0.22862  0.33569  0.19200  Biso   1.000  H 
