data_image0
_cell_length_a       8.26667
_cell_length_b       8.26667
_cell_length_c       8.26667
_cell_angle_alpha    130.316
_cell_angle_beta     130.316
_cell_angle_gamma    72.9016

_symmetry_space_group_name_H-M    "P 1"
_symmetry_int_tables_number       1

loop_
  _symmetry_equiv_pos_as_xyz
  'x, y, z'

loop_
  _atom_site_label
  _atom_site_occupancy
  _atom_site_fract_x
  _atom_site_fract_y
  _atom_site_fract_z
  _atom_site_thermal_displace_type
  _atom_site_B_iso_or_equiv
  _atom_site_type_symbol
  Al1      1.0000 0.00000  0.00000  0.00000  Biso   1.000  Al
  Ca1      1.0000 0.30073  0.30073  0.00000  Biso   1.000  Ca
  Ca2      1.0000 0.69927  0.69927  0.00000  Biso   1.000  Ca
  S1       1.0000 0.75000  0.25000  0.50000  Biso   1.000  S 
  S2       1.0000 0.25000  0.75000  0.50000  Biso   1.000  S 
  F1       1.0000 0.13338  0.13338  0.00000  Biso   1.000  F 
  F2       1.0000 0.86662  0.86662  0.00000  Biso   1.000  F 
  Cl1      1.0000 0.50000  0.50000  0.00000  Biso   1.000  Cl
  O1       1.0000 0.65218  0.25150  0.27328  Biso   1.000  O 
  O2       1.0000 0.97822  0.37890  0.72672  Biso   1.000  O 
  O3       1.0000 0.37890  0.65218  0.40068  Biso   1.000  O 
  O4       1.0000 0.25150  0.97822  0.59932  Biso   1.000  O 
  O5       1.0000 0.34782  0.74850  0.72672  Biso   1.000  O 
  O6       1.0000 0.02178  0.62110  0.27328  Biso   1.000  O 
  O7       1.0000 0.62110  0.34782  0.59932  Biso   1.000  O 
  O8       1.0000 0.74850  0.02178  0.40068  Biso   1.000  O 
  O9       1.0000 0.05578  0.72710  0.78288  Biso   1.000  O 
  O10      1.0000 0.94422  0.27290  0.21712  Biso   1.000  O 
  O11      1.0000 0.27290  0.05578  0.32868  Biso   1.000  O 
  O12      1.0000 0.72710  0.94422  0.67132  Biso   1.000  O 
  H1       1.0000 0.04719  0.60303  0.77219  Biso   1.000  H 
  H2       1.0000 0.83084  0.27501  0.22781  Biso   1.000  H 
  H3       1.0000 0.27501  0.04719  0.44416  Biso   1.000  H 
  H4       1.0000 0.60303  0.83084  0.55584  Biso   1.000  H 
  H5       1.0000 0.95281  0.39697  0.22781  Biso   1.000  H 
  H6       1.0000 0.16916  0.72499  0.77219  Biso   1.000  H 
  H7       1.0000 0.72499  0.95281  0.55584  Biso   1.000  H 
  H8       1.0000 0.39697  0.16916  0.44416  Biso   1.000  H 
