data_image0
_cell_length_a       6.72274
_cell_length_b       6.72274
_cell_length_c       8.91526
_cell_angle_alpha    61.5462
_cell_angle_beta     61.5462
_cell_angle_gamma    60.0015

_symmetry_space_group_name_H-M    "P 1"
_symmetry_int_tables_number       1

loop_
  _symmetry_equiv_pos_as_xyz
  'x, y, z'

loop_
  _atom_site_label
  _atom_site_occupancy
  _atom_site_fract_x
  _atom_site_fract_y
  _atom_site_fract_z
  _atom_site_thermal_displace_type
  _atom_site_B_iso_or_equiv
  _atom_site_type_symbol
  Cs1      1.0000 0.77645  0.22355  0.75000  Biso   1.000  Cs
  Cs2      1.0000 0.22355  0.77645  0.25000  Biso   1.000  Cs
  Al1      1.0000 0.00000  0.50000  0.00000  Biso   1.000  Al
  Al2      1.0000 0.50000  1.00000  0.50000  Biso   1.000  Al
  F1       1.0000 0.91687  0.26349  0.02722  Biso   1.000  F 
  F2       1.0000 0.73651  0.08313  0.47278  Biso   1.000  F 
  F3       1.0000 0.08313  0.73651  0.97278  Biso   1.000  F 
  F4       1.0000 0.26349  0.91687  0.52722  Biso   1.000  F 
  F5       1.0000 0.73229  0.72962  0.93185  Biso   1.000  F 
  F6       1.0000 0.27038  0.26771  0.56815  Biso   1.000  F 
  F7       1.0000 0.26771  0.27038  0.06815  Biso   1.000  F 
  F8       1.0000 0.72962  0.73229  0.43185  Biso   1.000  F 
  O1       1.0000 0.19505  0.51409  0.75150  Biso   1.000  O 
  O2       1.0000 0.48591  0.80495  0.74850  Biso   1.000  O 
  O3       1.0000 0.80495  0.48591  0.24850  Biso   1.000  O 
  O4       1.0000 0.51409  0.19505  0.25150  Biso   1.000  O 
  H1       1.0000 0.22067  0.41086  0.68699  Biso   1.000  H 
  H2       1.0000 0.58914  0.77933  0.81301  Biso   1.000  H 
  H3       1.0000 0.77933  0.58914  0.31301  Biso   1.000  H 
  H4       1.0000 0.41086  0.22067  0.18699  Biso   1.000  H 
  H5       1.0000 0.21784  0.66982  0.66299  Biso   1.000  H 
  H6       1.0000 0.33018  0.78216  0.83701  Biso   1.000  H 
  H7       1.0000 0.78216  0.33018  0.33701  Biso   1.000  H 
  H8       1.0000 0.66982  0.21784  0.16299  Biso   1.000  H 
