data_image0
_cell_length_a       9.52368
_cell_length_b       11.4651
_cell_length_c       12.2079
_cell_angle_alpha    66.5293
_cell_angle_beta     77.5193
_cell_angle_gamma    72.203

_symmetry_space_group_name_H-M    "P 1"
_symmetry_int_tables_number       1

loop_
  _symmetry_equiv_pos_as_xyz
  'x, y, z'

loop_
  _atom_site_label
  _atom_site_occupancy
  _atom_site_fract_x
  _atom_site_fract_y
  _atom_site_fract_z
  _atom_site_thermal_displace_type
  _atom_site_B_iso_or_equiv
  _atom_site_type_symbol
  Sb1      1.0000 0.34741  0.98527  0.43248  Biso   1.000  Sb
  Sb2      1.0000 0.65259  0.01473  0.56752  Biso   1.000  Sb
  Sb3      1.0000 0.55965  0.62555  0.67410  Biso   1.000  Sb
  Sb4      1.0000 0.44035  0.37445  0.32590  Biso   1.000  Sb
  Sb5      1.0000 0.56319  0.85588  0.82130  Biso   1.000  Sb
  Sb6      1.0000 0.43681  0.14412  0.17870  Biso   1.000  Sb
  Sb7      1.0000 0.70529  0.43764  0.00823  Biso   1.000  Sb
  Sb8      1.0000 0.29471  0.56236  0.99177  Biso   1.000  Sb
  Se1      1.0000 0.62336  0.84686  0.47296  Biso   1.000  Se
  Se2      1.0000 0.37664  0.15314  0.52704  Biso   1.000  Se
  Se3      1.0000 0.34928  0.78696  0.76549  Biso   1.000  Se
  Se4      1.0000 0.65072  0.21304  0.23451  Biso   1.000  Se
  Se5      1.0000 0.75960  0.65148  0.78058  Biso   1.000  Se
  Se6      1.0000 0.24040  0.34852  0.21942  Biso   1.000  Se
  Se7      1.0000 0.51361  0.39592  0.90882  Biso   1.000  Se
  Se8      1.0000 0.48639  0.60408  0.09118  Biso   1.000  Se
  Al1      1.0000 0.80315  0.31426  0.54479  Biso   1.000  Al
  Al2      1.0000 0.19685  0.68574  0.45521  Biso   1.000  Al
  Al3      1.0000 0.88558  0.80927  0.02807  Biso   1.000  Al
  Al4      1.0000 0.11442  0.19073  0.97193  Biso   1.000  Al
  Cl1      1.0000 0.72326  0.43849  0.37264  Biso   1.000  Cl
  Cl2      1.0000 0.27674  0.56151  0.62736  Biso   1.000  Cl
  Cl3      1.0000 0.62014  0.23453  0.66206  Biso   1.000  Cl
  Cl4      1.0000 0.37986  0.76547  0.33794  Biso   1.000  Cl
  Cl5      1.0000 0.85888  0.43281  0.62168  Biso   1.000  Cl
  Cl6      1.0000 0.14112  0.56719  0.37832  Biso   1.000  Cl
  Cl7      1.0000 0.98800  0.15813  0.52691  Biso   1.000  Cl
  Cl8      1.0000 0.01200  0.84187  0.47309  Biso   1.000  Cl
  Cl9      1.0000 0.88495  0.60610  0.07658  Biso   1.000  Cl
  Cl10     1.0000 0.11505  0.39390  0.92342  Biso   1.000  Cl
  Cl11     1.0000 0.86124  0.90729  0.83746  Biso   1.000  Cl
  Cl12     1.0000 0.13876  0.09271  0.16254  Biso   1.000  Cl
  Cl13     1.0000 0.10193  0.81039  0.05627  Biso   1.000  Cl
  Cl14     1.0000 0.89807  0.18961  0.94373  Biso   1.000  Cl
  Cl15     1.0000 0.70877  0.89744  0.13415  Biso   1.000  Cl
  Cl16     1.0000 0.29123  0.10256  0.86585  Biso   1.000  Cl
