data_image0
_cell_length_a       7.96752
_cell_length_b       7.96752
_cell_length_c       5.15487
_cell_angle_alpha    71.475
_cell_angle_beta     71.475
_cell_angle_gamma    112.409

_symmetry_space_group_name_H-M    "P 1"
_symmetry_int_tables_number       1

loop_
  _symmetry_equiv_pos_as_xyz
  'x, y, z'

loop_
  _atom_site_label
  _atom_site_occupancy
  _atom_site_fract_x
  _atom_site_fract_y
  _atom_site_fract_z
  _atom_site_thermal_displace_type
  _atom_site_B_iso_or_equiv
  _atom_site_type_symbol
  Cl1      1.0000 0.33706  0.66294  0.75000  Biso   1.000  Cl
  Cl2      1.0000 0.66294  0.33706  0.25000  Biso   1.000  Cl
  Al1      1.0000 0.05100  0.94900  0.25000  Biso   1.000  Al
  Al2      1.0000 0.94900  0.05100  0.75000  Biso   1.000  Al
  O1       1.0000 0.10086  0.17965  0.31342  Biso   1.000  O 
  O2       1.0000 0.82035  0.89914  0.18658  Biso   1.000  O 
  O3       1.0000 0.89914  0.82035  0.68658  Biso   1.000  O 
  O4       1.0000 0.17965  0.10086  0.81342  Biso   1.000  O 
  O5       1.0000 0.01598  0.68579  0.26529  Biso   1.000  O 
  O6       1.0000 0.31421  0.98402  0.23471  Biso   1.000  O 
  O7       1.0000 0.98402  0.31421  0.73471  Biso   1.000  O 
  O8       1.0000 0.68579  0.01598  0.76529  Biso   1.000  O 
  H1       1.0000 0.17590  0.32680  0.15307  Biso   1.000  H 
  H2       1.0000 0.67320  0.82410  0.34693  Biso   1.000  H 
  H3       1.0000 0.82410  0.67320  0.84693  Biso   1.000  H 
  H4       1.0000 0.32680  0.17590  0.65307  Biso   1.000  H 
  H5       1.0000 0.88495  0.58457  0.28886  Biso   1.000  H 
  H6       1.0000 0.41543  0.11505  0.21114  Biso   1.000  H 
  H7       1.0000 0.11505  0.41543  0.71114  Biso   1.000  H 
  H8       1.0000 0.58457  0.88495  0.78886  Biso   1.000  H 
  H9       1.0000 0.12954  0.69293  0.10041  Biso   1.000  H 
  H10      1.0000 0.30707  0.87046  0.39959  Biso   1.000  H 
  H11      1.0000 0.87046  0.30707  0.89959  Biso   1.000  H 
  H12      1.0000 0.69293  0.12954  0.60041  Biso   1.000  H 
