data_image0
_cell_length_a       2.84546
_cell_length_b       2.84546
_cell_length_c       11.3195
_cell_angle_alpha    90.0014
_cell_angle_beta     89.9993
_cell_angle_gamma    120

_symmetry_space_group_name_H-M    "P 1"
_symmetry_int_tables_number       1

loop_
  _symmetry_equiv_pos_as_xyz
  'x, y, z'

loop_
  _atom_site_label
  _atom_site_occupancy
  _atom_site_fract_x
  _atom_site_fract_y
  _atom_site_fract_z
  _atom_site_thermal_displace_type
  _atom_site_B_iso_or_equiv
  _atom_site_type_symbol
  Cu1      1.0000 0.33330  0.66669  0.25000  Biso   1.000  Cu
  Cu2      1.0000 0.66670  0.33340  0.75000  Biso   1.000  Cu
  Al1      1.0000 0.00000  0.00003  0.00000  Biso   1.000  Al
  Al2      1.0000 0.00000  0.00000  0.50000  Biso   1.000  Al
  O1       1.0000 0.33332  0.66670  0.08584  Biso   1.000  O 
  O2       1.0000 0.33332  0.66664  0.41416  Biso   1.000  O 
  O3       1.0000 0.66668  0.33337  0.58584  Biso   1.000  O 
  O4       1.0000 0.66668  0.33337  0.91416  Biso   1.000  O 
