data_image0
_cell_length_a       11.5549
_cell_length_b       6.27568
_cell_length_c       7.29661
_cell_angle_alpha    81.421
_cell_angle_beta     90
_cell_angle_gamma    90

_symmetry_space_group_name_H-M    "P 1"
_symmetry_int_tables_number       1

loop_
  _symmetry_equiv_pos_as_xyz
  'x, y, z'

loop_
  _atom_site_label
  _atom_site_occupancy
  _atom_site_fract_x
  _atom_site_fract_y
  _atom_site_fract_z
  _atom_site_thermal_displace_type
  _atom_site_B_iso_or_equiv
  _atom_site_type_symbol
  I1       1.0000 0.25623  0.99353  0.19876  Biso   1.000  I 
  I2       1.0000 0.75623  0.00647  0.80124  Biso   1.000  I 
  Al1      1.0000 0.40842  0.41087  0.51203  Biso   1.000  Al
  Al2      1.0000 0.90842  0.58913  0.48797  Biso   1.000  Al
  Cl1      1.0000 0.29209  0.72988  0.00673  Biso   1.000  Cl
  Cl2      1.0000 0.79209  0.27012  0.99327  Biso   1.000  Cl
  Cl3      1.0000 0.13470  0.21159  0.98942  Biso   1.000  Cl
  Cl4      1.0000 0.63470  0.78841  0.01058  Biso   1.000  Cl
  Cl5      1.0000 0.45097  0.30703  0.79403  Biso   1.000  Cl
  Cl6      1.0000 0.95097  0.69297  0.20597  Biso   1.000  Cl
  Cl7      1.0000 0.39597  0.76638  0.48510  Biso   1.000  Cl
  Cl8      1.0000 0.89597  0.23362  0.51490  Biso   1.000  Cl
  Cl9      1.0000 0.02738  0.67775  0.68431  Biso   1.000  Cl
  Cl10     1.0000 0.52738  0.32225  0.31569  Biso   1.000  Cl
  Cl11     1.0000 0.23323  0.29217  0.45427  Biso   1.000  Cl
  Cl12     1.0000 0.73323  0.70783  0.54573  Biso   1.000  Cl
