data_image0
_cell_length_a       7.16073
_cell_length_b       6.78846
_cell_length_c       9.91306
_cell_angle_alpha    90
_cell_angle_beta     90
_cell_angle_gamma    90

_symmetry_space_group_name_H-M    "P 1"
_symmetry_int_tables_number       1

loop_
  _symmetry_equiv_pos_as_xyz
  'x, y, z'

loop_
  _atom_site_label
  _atom_site_occupancy
  _atom_site_fract_x
  _atom_site_fract_y
  _atom_site_fract_z
  _atom_site_thermal_displace_type
  _atom_site_B_iso_or_equiv
  _atom_site_type_symbol
  K1       1.0000 0.25000  0.98762  0.61979  Biso   1.000  K 
  K2       1.0000 0.25000  0.48762  0.88021  Biso   1.000  K 
  K3       1.0000 0.75000  0.01238  0.38021  Biso   1.000  K 
  K4       1.0000 0.75000  0.51238  0.11979  Biso   1.000  K 
  Cu1      1.0000 0.25000  0.81048  0.26241  Biso   1.000  Cu
  Cu2      1.0000 0.75000  0.18952  0.73759  Biso   1.000  Cu
  Cu3      1.0000 0.25000  0.31048  0.23759  Biso   1.000  Cu
  Cu4      1.0000 0.75000  0.68952  0.76241  Biso   1.000  Cu
  Al1      1.0000 0.00000  0.50000  0.50000  Biso   1.000  Al
  Al2      1.0000 0.50000  0.00000  0.00000  Biso   1.000  Al
  Al3      1.0000 0.50000  0.50000  0.50000  Biso   1.000  Al
  Al4      1.0000 0.00000  0.00000  0.00000  Biso   1.000  Al
  F1       1.0000 0.25000  0.56920  0.16660  Biso   1.000  F 
  F2       1.0000 0.25000  0.06920  0.33340  Biso   1.000  F 
  F3       1.0000 0.75000  0.43080  0.83340  Biso   1.000  F 
  F4       1.0000 0.75000  0.93080  0.66660  Biso   1.000  F 
  F5       1.0000 0.25000  0.93813  0.98108  Biso   1.000  F 
  F6       1.0000 0.25000  0.43813  0.51892  Biso   1.000  F 
  F7       1.0000 0.75000  0.06187  0.01892  Biso   1.000  F 
  F8       1.0000 0.75000  0.56187  0.48108  Biso   1.000  F 
  F9       1.0000 0.05618  0.73501  0.42265  Biso   1.000  F 
  F10      1.0000 0.44382  0.23501  0.07735  Biso   1.000  F 
  F11      1.0000 0.55618  0.26499  0.57735  Biso   1.000  F 
  F12      1.0000 0.94382  0.76499  0.92265  Biso   1.000  F 
  F13      1.0000 0.94382  0.26499  0.57735  Biso   1.000  F 
  F14      1.0000 0.55618  0.76499  0.92265  Biso   1.000  F 
  F15      1.0000 0.44382  0.73501  0.42265  Biso   1.000  F 
  F16      1.0000 0.05618  0.23501  0.07735  Biso   1.000  F 
  F17      1.0000 0.00304  0.61829  0.66475  Biso   1.000  F 
  F18      1.0000 0.49696  0.11829  0.83525  Biso   1.000  F 
  F19      1.0000 0.50304  0.38171  0.33525  Biso   1.000  F 
  F20      1.0000 0.99696  0.88171  0.16475  Biso   1.000  F 
  F21      1.0000 0.99696  0.38171  0.33525  Biso   1.000  F 
  F22      1.0000 0.50304  0.88171  0.16475  Biso   1.000  F 
  F23      1.0000 0.49696  0.61829  0.66475  Biso   1.000  F 
  F24      1.0000 0.00304  0.11829  0.83525  Biso   1.000  F 
