data_image0
_cell_length_a       3.25907
_cell_length_b       3.25907
_cell_length_c       10.231
_cell_angle_alpha    90
_cell_angle_beta     90
_cell_angle_gamma    120

_symmetry_space_group_name_H-M    "P 1"
_symmetry_int_tables_number       1

loop_
  _symmetry_equiv_pos_as_xyz
  'x, y, z'

loop_
  _atom_site_label
  _atom_site_occupancy
  _atom_site_fract_x
  _atom_site_fract_y
  _atom_site_fract_z
  _atom_site_thermal_displace_type
  _atom_site_B_iso_or_equiv
  _atom_site_type_symbol
  Sc1      1.0000 0.33333  0.66667  0.19540  Biso   1.000  Sc
  Sc2      1.0000 0.66667  0.33333  0.69540  Biso   1.000  Sc
  Al1      1.0000 0.00000  0.00000  0.47983  Biso   1.000  Al
  Al2      1.0000 0.00000  0.00000  0.97983  Biso   1.000  Al
  O1       1.0000 0.00000  0.00000  0.30297  Biso   1.000  O 
  O2       1.0000 0.00000  0.00000  0.80297  Biso   1.000  O 
  C1       1.0000 0.66667  0.33333  0.05847  Biso   1.000  C 
  C2       1.0000 0.33333  0.66667  0.55847  Biso   1.000  C 
