data_image0
_cell_length_a       5.52102
_cell_length_b       5.52102
_cell_length_c       10.1065
_cell_angle_alpha    90
_cell_angle_beta     90
_cell_angle_gamma    90

_symmetry_space_group_name_H-M    "P 1"
_symmetry_int_tables_number       1

loop_
  _symmetry_equiv_pos_as_xyz
  'x, y, z'

loop_
  _atom_site_label
  _atom_site_occupancy
  _atom_site_fract_x
  _atom_site_fract_y
  _atom_site_fract_z
  _atom_site_thermal_displace_type
  _atom_site_B_iso_or_equiv
  _atom_site_type_symbol
  Cu1      1.0000 0.00000  0.00000  0.00000  Biso   1.000  Cu
  Cu2      1.0000 0.00000  0.00000  0.50000  Biso   1.000  Cu
  Al1      1.0000 0.50000  0.00000  0.75000  Biso   1.000  Al
  Al2      1.0000 0.00000  0.50000  0.25000  Biso   1.000  Al
  Cl1      1.0000 0.27274  0.22963  0.87156  Biso   1.000  Cl
  Cl2      1.0000 0.72726  0.77037  0.87156  Biso   1.000  Cl
  Cl3      1.0000 0.27274  0.77037  0.62844  Biso   1.000  Cl
  Cl4      1.0000 0.72726  0.22963  0.62844  Biso   1.000  Cl
  Cl5      1.0000 0.22963  0.72726  0.12844  Biso   1.000  Cl
  Cl6      1.0000 0.77037  0.27274  0.12844  Biso   1.000  Cl
  Cl7      1.0000 0.77037  0.72726  0.37156  Biso   1.000  Cl
  Cl8      1.0000 0.22963  0.27274  0.37156  Biso   1.000  Cl
