data_image0
_cell_length_a       6.25858
_cell_length_b       6.44767
_cell_length_c       9.42629
_cell_angle_alpha    79.3489
_cell_angle_beta     87.23
_cell_angle_gamma    59.5641

_symmetry_space_group_name_H-M    "P 1"
_symmetry_int_tables_number       1

loop_
  _symmetry_equiv_pos_as_xyz
  'x, y, z'

loop_
  _atom_site_label
  _atom_site_occupancy
  _atom_site_fract_x
  _atom_site_fract_y
  _atom_site_fract_z
  _atom_site_thermal_displace_type
  _atom_site_B_iso_or_equiv
  _atom_site_type_symbol
  Cd1      1.0000 0.41421  0.93156  0.62195  Biso   1.000  Cd
  Cd2      1.0000 0.58579  0.06844  0.37805  Biso   1.000  Cd
  Al1      1.0000 0.15705  0.56217  0.75123  Biso   1.000  Al
  Al2      1.0000 0.84295  0.43783  0.24878  Biso   1.000  Al
  Cl1      1.0000 0.83083  0.54218  0.81066  Biso   1.000  Cl
  Cl2      1.0000 0.16917  0.45782  0.18934  Biso   1.000  Cl
  Cl3      1.0000 0.16986  0.84435  0.84352  Biso   1.000  Cl
  Cl4      1.0000 0.83014  0.15565  0.15648  Biso   1.000  Cl
  Cl5      1.0000 0.16088  0.67390  0.51932  Biso   1.000  Cl
  Cl6      1.0000 0.83912  0.32610  0.48068  Biso   1.000  Cl
  Cl7      1.0000 0.48410  0.21052  0.81410  Biso   1.000  Cl
  Cl8      1.0000 0.51590  0.78948  0.18590  Biso   1.000  Cl
