data_image0
_cell_length_a       13.5981
_cell_length_b       6.16562
_cell_length_c       12.9391
_cell_angle_alpha    83.959
_cell_angle_beta     90
_cell_angle_gamma    90

_symmetry_space_group_name_H-M    "P 1"
_symmetry_int_tables_number       1

loop_
  _symmetry_equiv_pos_as_xyz
  'x, y, z'

loop_
  _atom_site_label
  _atom_site_occupancy
  _atom_site_fract_x
  _atom_site_fract_y
  _atom_site_fract_z
  _atom_site_thermal_displace_type
  _atom_site_B_iso_or_equiv
  _atom_site_type_symbol
  N1       1.0000 0.44784  0.25980  0.74338  Biso   1.000  N 
  N2       1.0000 0.94784  0.74020  0.25662  Biso   1.000  N 
  N3       1.0000 0.55216  0.74020  0.25662  Biso   1.000  N 
  N4       1.0000 0.05216  0.25980  0.74338  Biso   1.000  N 
  S1       1.0000 0.40532  0.36357  0.83711  Biso   1.000  S 
  S2       1.0000 0.90532  0.63643  0.16289  Biso   1.000  S 
  S3       1.0000 0.59468  0.63643  0.16289  Biso   1.000  S 
  S4       1.0000 0.09468  0.36357  0.83711  Biso   1.000  S 
  S5       1.0000 0.52195  0.24778  0.65419  Biso   1.000  S 
  S6       1.0000 0.02195  0.75222  0.34581  Biso   1.000  S 
  S7       1.0000 0.47805  0.75222  0.34581  Biso   1.000  S 
  S8       1.0000 0.97805  0.24778  0.65419  Biso   1.000  S 
  Cl1      1.0000 0.48486  0.63010  0.86474  Biso   1.000  Cl
  Cl2      1.0000 0.98486  0.36990  0.13526  Biso   1.000  Cl
  Cl3      1.0000 0.51514  0.36990  0.13526  Biso   1.000  Cl
  Cl4      1.0000 0.01514  0.63010  0.86474  Biso   1.000  Cl
  Cl5      1.0000 0.61650  0.50250  0.64724  Biso   1.000  Cl
  Cl6      1.0000 0.11650  0.49750  0.35276  Biso   1.000  Cl
  Cl7      1.0000 0.38350  0.49750  0.35276  Biso   1.000  Cl
  Cl8      1.0000 0.88350  0.50250  0.64724  Biso   1.000  Cl
  Cl9      1.0000 0.75000  0.50389  0.97997  Biso   1.000  Cl
  Cl10     1.0000 0.25000  0.49611  0.02003  Biso   1.000  Cl
  Cl11     1.0000 0.75000  0.02137  0.14829  Biso   1.000  Cl
  Cl12     1.0000 0.25000  0.97863  0.85171  Biso   1.000  Cl
  Cl13     1.0000 0.61928  0.04626  0.91260  Biso   1.000  Cl
  Cl14     1.0000 0.11928  0.95374  0.08740  Biso   1.000  Cl
  Cl15     1.0000 0.38072  0.95374  0.08740  Biso   1.000  Cl
  Cl16     1.0000 0.88072  0.04626  0.91260  Biso   1.000  Cl
  Cl17     1.0000 0.75000  0.96021  0.63568  Biso   1.000  Cl
  Cl18     1.0000 0.25000  0.03979  0.36432  Biso   1.000  Cl
  Cl19     1.0000 0.75000  0.68385  0.41234  Biso   1.000  Cl
  Cl20     1.0000 0.25000  0.31615  0.58766  Biso   1.000  Cl
  Cl21     1.0000 0.61675  0.16931  0.41505  Biso   1.000  Cl
  Cl22     1.0000 0.11675  0.83069  0.58495  Biso   1.000  Cl
  Cl23     1.0000 0.38325  0.83069  0.58495  Biso   1.000  Cl
  Cl24     1.0000 0.88325  0.16931  0.41505  Biso   1.000  Cl
  Al1      1.0000 0.75000  0.15290  0.98559  Biso   1.000  Al
  Al2      1.0000 0.25000  0.84710  0.01441  Biso   1.000  Al
  Al3      1.0000 0.75000  0.99918  0.46697  Biso   1.000  Al
  Al4      1.0000 0.25000  0.00082  0.53303  Biso   1.000  Al
