data_image0
_cell_length_a       14.6064
_cell_length_b       14.6064
_cell_length_c       14.7212
_cell_angle_alpha    72.9384
_cell_angle_beta     72.9384
_cell_angle_gamma    30.5051

_symmetry_space_group_name_H-M    "P 1"
_symmetry_int_tables_number       1

loop_
  _symmetry_equiv_pos_as_xyz
  'x, y, z'

loop_
  _atom_site_label
  _atom_site_occupancy
  _atom_site_fract_x
  _atom_site_fract_y
  _atom_site_fract_z
  _atom_site_thermal_displace_type
  _atom_site_B_iso_or_equiv
  _atom_site_type_symbol
  I1       1.0000 0.07142  0.16394  0.28176  Biso   1.000  I 
  I2       1.0000 0.83606  0.92858  0.21824  Biso   1.000  I 
  I3       1.0000 0.92858  0.83606  0.71824  Biso   1.000  I 
  I4       1.0000 0.16394  0.07142  0.78176  Biso   1.000  I 
  I5       1.0000 0.35976  0.04766  0.17253  Biso   1.000  I 
  I6       1.0000 0.95234  0.64024  0.32747  Biso   1.000  I 
  I7       1.0000 0.64024  0.95234  0.82747  Biso   1.000  I 
  I8       1.0000 0.04766  0.35976  0.67253  Biso   1.000  I 
  I9       1.0000 0.77267  0.29865  0.39572  Biso   1.000  I 
  I10      1.0000 0.70135  0.22733  0.10428  Biso   1.000  I 
  I11      1.0000 0.22733  0.70135  0.60428  Biso   1.000  I 
  I12      1.0000 0.29865  0.77267  0.89572  Biso   1.000  I 
  Cl1      1.0000 0.39172  0.09763  0.29195  Biso   1.000  Cl
  Cl2      1.0000 0.90237  0.60828  0.20805  Biso   1.000  Cl
  Cl3      1.0000 0.60828  0.90237  0.70805  Biso   1.000  Cl
  Cl4      1.0000 0.09763  0.39172  0.79195  Biso   1.000  Cl
  Cl5      1.0000 0.89052  0.04678  0.39108  Biso   1.000  Cl
  Cl6      1.0000 0.95322  0.10948  0.10892  Biso   1.000  Cl
  Cl7      1.0000 0.10948  0.95322  0.60892  Biso   1.000  Cl
  Cl8      1.0000 0.04678  0.89052  0.89108  Biso   1.000  Cl
  Al1      1.0000 0.68738  0.57301  0.53971  Biso   1.000  Al
  Al2      1.0000 0.42699  0.31262  0.96029  Biso   1.000  Al
  Al3      1.0000 0.31262  0.42699  0.46029  Biso   1.000  Al
  Al4      1.0000 0.57301  0.68738  0.03971  Biso   1.000  Al
  Cl9      1.0000 0.60659  0.61332  0.40922  Biso   1.000  Cl
  Cl10     1.0000 0.38668  0.39341  0.09078  Biso   1.000  Cl
  Cl11     1.0000 0.39341  0.38668  0.59078  Biso   1.000  Cl
  Cl12     1.0000 0.61332  0.60659  0.90922  Biso   1.000  Cl
  Cl13     1.0000 0.98400  0.34560  0.51458  Biso   1.000  Cl
  Cl14     1.0000 0.65440  0.01600  0.98542  Biso   1.000  Cl
  Cl15     1.0000 0.01600  0.65440  0.48542  Biso   1.000  Cl
  Cl16     1.0000 0.34560  0.98400  0.01458  Biso   1.000  Cl
  Cl17     1.0000 0.55776  0.81164  0.54843  Biso   1.000  Cl
  Cl18     1.0000 0.18836  0.44224  0.95157  Biso   1.000  Cl
  Cl19     1.0000 0.44224  0.18836  0.45157  Biso   1.000  Cl
  Cl20     1.0000 0.81164  0.55776  0.04843  Biso   1.000  Cl
  Cl21     1.0000 0.64083  0.48956  0.65880  Biso   1.000  Cl
  Cl22     1.0000 0.51044  0.35917  0.84120  Biso   1.000  Cl
  Cl23     1.0000 0.35917  0.51044  0.34120  Biso   1.000  Cl
  Cl24     1.0000 0.48956  0.64083  0.15880  Biso   1.000  Cl
