data_image0
_cell_length_a       7.25636
_cell_length_b       7.08589
_cell_length_c       10.3327
_cell_angle_alpha    90
_cell_angle_beta     90
_cell_angle_gamma    90

_symmetry_space_group_name_H-M    "P 1"
_symmetry_int_tables_number       1

loop_
  _symmetry_equiv_pos_as_xyz
  'x, y, z'

loop_
  _atom_site_label
  _atom_site_occupancy
  _atom_site_fract_x
  _atom_site_fract_y
  _atom_site_fract_z
  _atom_site_thermal_displace_type
  _atom_site_B_iso_or_equiv
  _atom_site_type_symbol
  Cs1      1.0000 0.25000  0.99157  0.62843  Biso   1.000  Cs
  Cs2      1.0000 0.25000  0.49157  0.87157  Biso   1.000  Cs
  Cs3      1.0000 0.75000  0.00843  0.37157  Biso   1.000  Cs
  Cs4      1.0000 0.75000  0.50843  0.12843  Biso   1.000  Cs
  Cu1      1.0000 0.25000  0.77350  0.25604  Biso   1.000  Cu
  Cu2      1.0000 0.75000  0.22650  0.74396  Biso   1.000  Cu
  Cu3      1.0000 0.25000  0.27350  0.24396  Biso   1.000  Cu
  Cu4      1.0000 0.75000  0.72650  0.75604  Biso   1.000  Cu
  Al1      1.0000 0.00000  0.50000  0.50000  Biso   1.000  Al
  Al2      1.0000 0.50000  0.00000  0.00000  Biso   1.000  Al
  Al3      1.0000 0.50000  0.50000  0.50000  Biso   1.000  Al
  Al4      1.0000 0.00000  0.00000  0.00000  Biso   1.000  Al
  F1       1.0000 0.25000  0.52729  0.18024  Biso   1.000  F 
  F2       1.0000 0.25000  0.02729  0.31976  Biso   1.000  F 
  F3       1.0000 0.75000  0.47271  0.81976  Biso   1.000  F 
  F4       1.0000 0.75000  0.97271  0.68024  Biso   1.000  F 
  F5       1.0000 0.25000  0.97119  0.96103  Biso   1.000  F 
  F6       1.0000 0.25000  0.47119  0.53897  Biso   1.000  F 
  F7       1.0000 0.75000  0.02881  0.03897  Biso   1.000  F 
  F8       1.0000 0.75000  0.52881  0.46103  Biso   1.000  F 
  F9       1.0000 0.97593  0.65581  0.63866  Biso   1.000  F 
  F10      1.0000 0.52407  0.15581  0.86134  Biso   1.000  F 
  F11      1.0000 0.47593  0.34419  0.36134  Biso   1.000  F 
  F12      1.0000 0.02407  0.84419  0.13866  Biso   1.000  F 
  F13      1.0000 0.02407  0.34419  0.36134  Biso   1.000  F 
  F14      1.0000 0.47593  0.84419  0.13866  Biso   1.000  F 
  F15      1.0000 0.52407  0.65581  0.63866  Biso   1.000  F 
  F16      1.0000 0.97593  0.15581  0.86134  Biso   1.000  F 
  F17      1.0000 0.04997  0.70356  0.39902  Biso   1.000  F 
  F18      1.0000 0.45003  0.20356  0.10098  Biso   1.000  F 
  F19      1.0000 0.54997  0.29644  0.60098  Biso   1.000  F 
  F20      1.0000 0.95003  0.79644  0.89902  Biso   1.000  F 
  F21      1.0000 0.95003  0.29644  0.60098  Biso   1.000  F 
  F22      1.0000 0.54997  0.79644  0.89902  Biso   1.000  F 
  F23      1.0000 0.45003  0.70356  0.39902  Biso   1.000  F 
  F24      1.0000 0.04997  0.20356  0.10098  Biso   1.000  F 
