data_image0
_cell_length_a       5.37042
_cell_length_b       5.37042
_cell_length_c       5.37042
_cell_angle_alpha    60.5026
_cell_angle_beta     60.5026
_cell_angle_gamma    60.5026

_symmetry_space_group_name_H-M    "P 1"
_symmetry_int_tables_number       1

loop_
  _symmetry_equiv_pos_as_xyz
  'x, y, z'

loop_
  _atom_site_label
  _atom_site_occupancy
  _atom_site_fract_x
  _atom_site_fract_y
  _atom_site_fract_z
  _atom_site_thermal_displace_type
  _atom_site_B_iso_or_equiv
  _atom_site_type_symbol
  Al1      1.0000 0.50000  0.50000  0.50000  Biso   1.000  Al
  Al2      1.0000 0.00000  0.00000  0.00000  Biso   1.000  Al
  Ce1      1.0000 0.75000  0.75000  0.75000  Biso   1.000  Ce
  Ce2      1.0000 0.25000  0.25000  0.25000  Biso   1.000  Ce
  O1       1.0000 0.29112  0.20888  0.75000  Biso   1.000  O 
  O2       1.0000 0.75000  0.29112  0.20888  Biso   1.000  O 
  O3       1.0000 0.20888  0.75000  0.29112  Biso   1.000  O 
  O4       1.0000 0.70888  0.79112  0.25000  Biso   1.000  O 
  O5       1.0000 0.25000  0.70888  0.79112  Biso   1.000  O 
  O6       1.0000 0.79112  0.25000  0.70888  Biso   1.000  O 
