data_image0
_cell_length_a       7.29723
_cell_length_b       7.72297
_cell_length_c       10.3219
_cell_angle_alpha    90
_cell_angle_beta     90
_cell_angle_gamma    90

_symmetry_space_group_name_H-M    "P 1"
_symmetry_int_tables_number       1

loop_
  _symmetry_equiv_pos_as_xyz
  'x, y, z'

loop_
  _atom_site_label
  _atom_site_occupancy
  _atom_site_fract_x
  _atom_site_fract_y
  _atom_site_fract_z
  _atom_site_thermal_displace_type
  _atom_site_B_iso_or_equiv
  _atom_site_type_symbol
  Cs1      1.0000 0.75000  0.99303  0.63932  Biso   1.000  Cs
  Cs2      1.0000 0.75000  0.49303  0.86068  Biso   1.000  Cs
  Cs3      1.0000 0.25000  0.00697  0.36068  Biso   1.000  Cs
  Cs4      1.0000 0.25000  0.50697  0.13932  Biso   1.000  Cs
  Pd1      1.0000 0.75000  0.75613  0.25287  Biso   1.000  Pd
  Pd2      1.0000 0.25000  0.24387  0.74713  Biso   1.000  Pd
  Pd3      1.0000 0.75000  0.25613  0.24713  Biso   1.000  Pd
  Pd4      1.0000 0.25000  0.74387  0.75287  Biso   1.000  Pd
  Al1      1.0000 0.00000  0.50000  0.50000  Biso   1.000  Al
  Al2      1.0000 0.50000  0.00000  0.00000  Biso   1.000  Al
  Al3      1.0000 0.50000  0.50000  0.50000  Biso   1.000  Al
  Al4      1.0000 0.00000  0.00000  0.00000  Biso   1.000  Al
  F1       1.0000 0.75000  0.50782  0.16309  Biso   1.000  F 
  F2       1.0000 0.75000  0.00782  0.33691  Biso   1.000  F 
  F3       1.0000 0.25000  0.49218  0.83691  Biso   1.000  F 
  F4       1.0000 0.25000  0.99218  0.66309  Biso   1.000  F 
  F5       1.0000 0.75000  0.49583  0.52469  Biso   1.000  F 
  F6       1.0000 0.75000  0.99583  0.97531  Biso   1.000  F 
  F7       1.0000 0.25000  0.50417  0.47531  Biso   1.000  F 
  F8       1.0000 0.25000  0.00417  0.02469  Biso   1.000  F 
  F9       1.0000 0.98346  0.83895  0.12864  Biso   1.000  F 
  F10      1.0000 0.51654  0.33895  0.37136  Biso   1.000  F 
  F11      1.0000 0.48346  0.16105  0.87136  Biso   1.000  F 
  F12      1.0000 0.01654  0.66105  0.62864  Biso   1.000  F 
  F13      1.0000 0.01654  0.16105  0.87136  Biso   1.000  F 
  F14      1.0000 0.48346  0.66105  0.62864  Biso   1.000  F 
  F15      1.0000 0.51654  0.83895  0.12864  Biso   1.000  F 
  F16      1.0000 0.98346  0.33895  0.37136  Biso   1.000  F 
  F17      1.0000 0.97914  0.67475  0.38179  Biso   1.000  F 
  F18      1.0000 0.52086  0.17475  0.11821  Biso   1.000  F 
  F19      1.0000 0.47914  0.32525  0.61821  Biso   1.000  F 
  F20      1.0000 0.02086  0.82525  0.88179  Biso   1.000  F 
  F21      1.0000 0.02086  0.32525  0.61821  Biso   1.000  F 
  F22      1.0000 0.47914  0.82525  0.88179  Biso   1.000  F 
  F23      1.0000 0.52086  0.67475  0.38179  Biso   1.000  F 
  F24      1.0000 0.97914  0.17475  0.11821  Biso   1.000  F 
