data_image0
_cell_length_a       10.4016
_cell_length_b       6.00945
_cell_length_c       6.46964
_cell_angle_alpha    72.4556
_cell_angle_beta     90
_cell_angle_gamma    90

_symmetry_space_group_name_H-M    "P 1"
_symmetry_int_tables_number       1

loop_
  _symmetry_equiv_pos_as_xyz
  'x, y, z'

loop_
  _atom_site_label
  _atom_site_occupancy
  _atom_site_fract_x
  _atom_site_fract_y
  _atom_site_fract_z
  _atom_site_thermal_displace_type
  _atom_site_B_iso_or_equiv
  _atom_site_type_symbol
  Al1      1.0000 0.16668  0.00000  0.00000  Biso   1.000  Al
  Al2      1.0000 0.83332  0.00000  0.00000  Biso   1.000  Al
  Al3      1.0000 0.66668  0.50000  1.00000  Biso   1.000  Al
  Al4      1.0000 0.33332  0.50000  1.00000  Biso   1.000  Al
  Cl1      1.0000 0.00000  0.79242  0.21748  Biso   1.000  Cl
  Cl2      1.0000 0.00000  0.20758  0.78252  Biso   1.000  Cl
  Cl3      1.0000 0.50000  0.70758  0.78252  Biso   1.000  Cl
  Cl4      1.0000 0.50000  0.29242  0.21748  Biso   1.000  Cl
  Cl5      1.0000 0.18099  0.75107  0.78368  Biso   1.000  Cl
  Cl6      1.0000 0.18099  0.24893  0.21632  Biso   1.000  Cl
  Cl7      1.0000 0.81901  0.24893  0.21632  Biso   1.000  Cl
  Cl8      1.0000 0.81901  0.75107  0.78368  Biso   1.000  Cl
  Cl9      1.0000 0.68099  0.74893  0.21632  Biso   1.000  Cl
  Cl10     1.0000 0.31901  0.74893  0.21632  Biso   1.000  Cl
  Cl11     1.0000 0.31901  0.25107  0.78368  Biso   1.000  Cl
  Cl12     1.0000 0.68099  0.25107  0.78368  Biso   1.000  Cl
