data_image0
_cell_length_a       7.49259
_cell_length_b       7.8062
_cell_length_c       7.97295
_cell_angle_alpha    89.8853
_cell_angle_beta     72.4487
_cell_angle_gamma    62.9567

_symmetry_space_group_name_H-M    "P 1"
_symmetry_int_tables_number       1

loop_
  _symmetry_equiv_pos_as_xyz
  'x, y, z'

loop_
  _atom_site_label
  _atom_site_occupancy
  _atom_site_fract_x
  _atom_site_fract_y
  _atom_site_fract_z
  _atom_site_thermal_displace_type
  _atom_site_B_iso_or_equiv
  _atom_site_type_symbol
  Cl1      1.0000 0.32928  0.24522  0.72527  Biso   1.000  Cl
  Cl2      1.0000 0.67072  0.75478  0.27473  Biso   1.000  Cl
  Cl3      1.0000 0.72577  0.25111  0.88338  Biso   1.000  Cl
  Cl4      1.0000 0.27423  0.74889  0.11662  Biso   1.000  Cl
  Al1      1.0000 0.51736  0.13350  0.89196  Biso   1.000  Al
  Al2      1.0000 0.48264  0.86650  0.10804  Biso   1.000  Al
  N1       1.0000 0.65761  0.84851  0.86178  Biso   1.000  N 
  N2       1.0000 0.34239  0.15149  0.13822  Biso   1.000  N 
  C1       1.0000 0.60558  0.75687  0.73320  Biso   1.000  C 
  C2       1.0000 0.39442  0.24313  0.26680  Biso   1.000  C 
  C3       1.0000 0.89375  0.74592  0.82610  Biso   1.000  C 
  C4       1.0000 0.10625  0.25408  0.17390  Biso   1.000  C 
  C5       1.0000 0.02607  0.75997  0.64494  Biso   1.000  C 
  C6       1.0000 0.97393  0.24003  0.35506  Biso   1.000  C 
  H1       1.0000 0.43278  0.82259  0.76541  Biso   1.000  H 
  H2       1.0000 0.56722  0.17741  0.23459  Biso   1.000  H 
  H3       1.0000 0.67295  0.77613  0.59591  Biso   1.000  H 
  H4       1.0000 0.32705  0.22387  0.40409  Biso   1.000  H 
  H5       1.0000 0.66807  0.59990  0.74081  Biso   1.000  H 
  H6       1.0000 0.33193  0.40010  0.25919  Biso   1.000  H 
  H7       1.0000 0.92357  0.80776  0.93174  Biso   1.000  H 
  H8       1.0000 0.07643  0.19224  0.06826  Biso   1.000  H 
  H9       1.0000 0.94370  0.59113  0.83917  Biso   1.000  H 
  H10      1.0000 0.05630  0.40887  0.16083  Biso   1.000  H 
  H11      1.0000 0.19395  0.69179  0.63618  Biso   1.000  H 
  H12      1.0000 0.80605  0.30821  0.36382  Biso   1.000  H 
  H13      1.0000 0.01796  0.68461  0.53358  Biso   1.000  H 
  H14      1.0000 0.98204  0.31539  0.46642  Biso   1.000  H 
  H15      1.0000 0.97641  0.91258  0.62670  Biso   1.000  H 
  H16      1.0000 0.02359  0.08742  0.37330  Biso   1.000  H 
