data_image0
_cell_length_a       5.00425
_cell_length_b       8.65649
_cell_length_c       9.33902
_cell_angle_alpha    90
_cell_angle_beta     90
_cell_angle_gamma    90

_symmetry_space_group_name_H-M    "P 1"
_symmetry_int_tables_number       1

loop_
  _symmetry_equiv_pos_as_xyz
  'x, y, z'

loop_
  _atom_site_label
  _atom_site_occupancy
  _atom_site_fract_x
  _atom_site_fract_y
  _atom_site_fract_z
  _atom_site_thermal_displace_type
  _atom_site_B_iso_or_equiv
  _atom_site_type_symbol
  Fe1      1.0000 0.68441  0.34918  0.58060  Biso   1.000  Fe
  Fe2      1.0000 0.31559  0.65082  0.08060  Biso   1.000  Fe
  Fe3      1.0000 0.81559  0.84918  0.08060  Biso   1.000  Fe
  Fe4      1.0000 0.18441  0.15082  0.58060  Biso   1.000  Fe
  Fe5      1.0000 0.16768  0.46871  0.79910  Biso   1.000  Fe
  Fe6      1.0000 0.83232  0.53129  0.29910  Biso   1.000  Fe
  Fe7      1.0000 0.33232  0.96871  0.29910  Biso   1.000  Fe
  Fe8      1.0000 0.66768  0.03129  0.79910  Biso   1.000  Fe
  Al1      1.0000 0.66780  0.34484  0.00201  Biso   1.000  Al
  Al2      1.0000 0.33220  0.65516  0.50201  Biso   1.000  Al
  Al3      1.0000 0.83220  0.84484  0.50201  Biso   1.000  Al
  Al4      1.0000 0.16780  0.15516  0.00201  Biso   1.000  Al
  Al5      1.0000 0.31791  0.33748  0.30521  Biso   1.000  Al
  Al6      1.0000 0.68209  0.66252  0.80521  Biso   1.000  Al
  Al7      1.0000 0.18209  0.83748  0.80521  Biso   1.000  Al
  Al8      1.0000 0.81791  0.16252  0.30521  Biso   1.000  Al
  O1       1.0000 0.48478  0.17959  0.41691  Biso   1.000  O 
  O2       1.0000 0.51522  0.82041  0.91691  Biso   1.000  O 
  O3       1.0000 0.01522  0.67959  0.91691  Biso   1.000  O 
  O4       1.0000 0.98478  0.32041  0.41691  Biso   1.000  O 
  O5       1.0000 0.99984  0.01032  0.42965  Biso   1.000  O 
  O6       1.0000 0.00016  0.98968  0.92965  Biso   1.000  O 
  O7       1.0000 0.50017  0.51032  0.92965  Biso   1.000  O 
  O8       1.0000 0.49984  0.48968  0.42965  Biso   1.000  O 
  O9       1.0000 0.16377  0.49548  0.20025  Biso   1.000  O 
  O10      1.0000 0.83624  0.50452  0.70025  Biso   1.000  O 
  O11      1.0000 0.33623  0.99548  0.70025  Biso   1.000  O 
  O12      1.0000 0.66377  0.00452  0.20025  Biso   1.000  O 
  O13      1.0000 0.64572  0.33347  0.19489  Biso   1.000  O 
  O14      1.0000 0.35428  0.66653  0.69489  Biso   1.000  O 
  O15      1.0000 0.85428  0.83347  0.69489  Biso   1.000  O 
  O16      1.0000 0.14572  0.16653  0.19489  Biso   1.000  O 
  O17      1.0000 0.33556  0.33161  0.67183  Biso   1.000  O 
  O18      1.0000 0.66444  0.66839  0.17183  Biso   1.000  O 
  O19      1.0000 0.16444  0.83161  0.17183  Biso   1.000  O 
  O20      1.0000 0.83556  0.16839  0.67183  Biso   1.000  O 
  O21      1.0000 0.00114  0.32535  0.94334  Biso   1.000  O 
  O22      1.0000 0.99886  0.67465  0.44334  Biso   1.000  O 
  O23      1.0000 0.49886  0.82535  0.44334  Biso   1.000  O 
  O24      1.0000 0.50114  0.17465  0.94334  Biso   1.000  O 
