data_image0
_cell_length_a       9.47168
_cell_length_b       9.47168
_cell_length_c       6.18562
_cell_angle_alpha    90
_cell_angle_beta     90
_cell_angle_gamma    120

_symmetry_space_group_name_H-M    "P 1"
_symmetry_int_tables_number       1

loop_
  _symmetry_equiv_pos_as_xyz
  'x, y, z'

loop_
  _atom_site_label
  _atom_site_occupancy
  _atom_site_fract_x
  _atom_site_fract_y
  _atom_site_fract_z
  _atom_site_thermal_displace_type
  _atom_site_B_iso_or_equiv
  _atom_site_type_symbol
  Y1       1.0000 0.78336  0.15801  0.72215  Biso   1.000  Y 
  Y2       1.0000 0.37466  0.21664  0.72215  Biso   1.000  Y 
  Y3       1.0000 0.84199  0.62534  0.72215  Biso   1.000  Y 
  Y4       1.0000 0.21664  0.84199  0.22215  Biso   1.000  Y 
  Y5       1.0000 0.62534  0.78336  0.22215  Biso   1.000  Y 
  Y6       1.0000 0.15801  0.37466  0.22215  Biso   1.000  Y 
  Fe1      1.0000 0.00000  0.00000  0.57170  Biso   1.000  Fe
  Fe2      1.0000 0.00000  0.00000  0.07170  Biso   1.000  Fe
  Al1      1.0000 0.66667  0.33333  0.14881  Biso   1.000  Al
  Al2      1.0000 0.33333  0.66667  0.64881  Biso   1.000  Al
  S1       1.0000 0.87799  0.09477  0.32600  Biso   1.000  S 
  S2       1.0000 0.21678  0.12201  0.32600  Biso   1.000  S 
  S3       1.0000 0.90523  0.78322  0.32600  Biso   1.000  S 
  S4       1.0000 0.12201  0.90523  0.82600  Biso   1.000  S 
  S5       1.0000 0.78322  0.87799  0.82600  Biso   1.000  S 
  S6       1.0000 0.09477  0.21678  0.82600  Biso   1.000  S 
  S7       1.0000 0.91343  0.43500  0.99623  Biso   1.000  S 
  S8       1.0000 0.52157  0.08657  0.99623  Biso   1.000  S 
  S9       1.0000 0.56500  0.47843  0.99623  Biso   1.000  S 
  S10      1.0000 0.08657  0.56500  0.49623  Biso   1.000  S 
  S11      1.0000 0.47843  0.91343  0.49623  Biso   1.000  S 
  S12      1.0000 0.43500  0.52157  0.49623  Biso   1.000  S 
  S13      1.0000 0.66667  0.33333  0.51038  Biso   1.000  S 
  S14      1.0000 0.33333  0.66667  0.01038  Biso   1.000  S 
