data_image0
_cell_length_a       9.67597
_cell_length_b       5.30989
_cell_length_c       7.26876
_cell_angle_alpha    69.9872
_cell_angle_beta     90
_cell_angle_gamma    90

_symmetry_space_group_name_H-M    "P 1"
_symmetry_int_tables_number       1

loop_
  _symmetry_equiv_pos_as_xyz
  'x, y, z'

loop_
  _atom_site_label
  _atom_site_occupancy
  _atom_site_fract_x
  _atom_site_fract_y
  _atom_site_fract_z
  _atom_site_thermal_displace_type
  _atom_site_B_iso_or_equiv
  _atom_site_type_symbol
  Al1      1.0000 0.50000  0.41036  0.40469  Biso   1.000  Al
  Al2      1.0000 0.50000  0.41036  0.90469  Biso   1.000  Al
  Al3      1.0000 0.00000  0.58964  0.10987  Biso   1.000  Al
  Al4      1.0000 0.00000  0.58964  0.60987  Biso   1.000  Al
  Mn1      1.0000 0.25000  0.00000  0.25763  Biso   1.000  Mn
  Mn2      1.0000 0.75000  0.00000  0.75763  Biso   1.000  Mn
  Mn3      1.0000 0.25000  0.00000  0.75763  Biso   1.000  Mn
  Mn4      1.0000 0.75000  0.00000  0.25763  Biso   1.000  Mn
  F1       1.0000 0.50000  0.38325  0.16147  Biso   1.000  F 
  F2       1.0000 0.50000  0.38325  0.66147  Biso   1.000  F 
  F3       1.0000 0.00000  0.61676  0.35309  Biso   1.000  F 
  F4       1.0000 0.00000  0.61676  0.85309  Biso   1.000  F 
  F5       1.0000 0.36743  0.65937  0.34244  Biso   1.000  F 
  F6       1.0000 0.36743  0.65937  0.84244  Biso   1.000  F 
  F7       1.0000 0.13257  0.34063  0.17213  Biso   1.000  F 
  F8       1.0000 0.13257  0.34063  0.67213  Biso   1.000  F 
  F9       1.0000 0.63257  0.65937  0.34244  Biso   1.000  F 
  F10      1.0000 0.63257  0.65937  0.84244  Biso   1.000  F 
  F11      1.0000 0.86743  0.34063  0.17213  Biso   1.000  F 
  F12      1.0000 0.86743  0.34063  0.67213  Biso   1.000  F 
  F13      1.0000 0.36522  0.14453  0.47123  Biso   1.000  F 
  F14      1.0000 0.36522  0.14453  0.97123  Biso   1.000  F 
  F15      1.0000 0.13478  0.85547  0.04350  Biso   1.000  F 
  F16      1.0000 0.13478  0.85547  0.54350  Biso   1.000  F 
  F17      1.0000 0.63478  0.14453  0.47123  Biso   1.000  F 
  F18      1.0000 0.63478  0.14453  0.97123  Biso   1.000  F 
  F19      1.0000 0.86522  0.85547  0.04350  Biso   1.000  F 
  F20      1.0000 0.86522  0.85547  0.54350  Biso   1.000  F 
