data_image0
_cell_length_a       7.24444
_cell_length_b       7.51222
_cell_length_c       10.1824
_cell_angle_alpha    90
_cell_angle_beta     90
_cell_angle_gamma    90

_symmetry_space_group_name_H-M    "P 1"
_symmetry_int_tables_number       1

loop_
  _symmetry_equiv_pos_as_xyz
  'x, y, z'

loop_
  _atom_site_label
  _atom_site_occupancy
  _atom_site_fract_x
  _atom_site_fract_y
  _atom_site_fract_z
  _atom_site_thermal_displace_type
  _atom_site_B_iso_or_equiv
  _atom_site_type_symbol
  Rb1      1.0000 0.75000  0.98002  0.63196  Biso   1.000  Rb
  Rb2      1.0000 0.75000  0.48002  0.86804  Biso   1.000  Rb
  Rb3      1.0000 0.25000  0.01998  0.36804  Biso   1.000  Rb
  Rb4      1.0000 0.25000  0.51998  0.13196  Biso   1.000  Rb
  Pd1      1.0000 0.75000  0.28271  0.23716  Biso   1.000  Pd
  Pd2      1.0000 0.25000  0.71729  0.76284  Biso   1.000  Pd
  Pd3      1.0000 0.75000  0.78271  0.26284  Biso   1.000  Pd
  Pd4      1.0000 0.25000  0.21729  0.73716  Biso   1.000  Pd
  Al1      1.0000 0.00000  0.50000  0.50000  Biso   1.000  Al
  Al2      1.0000 0.50000  0.00000  0.00000  Biso   1.000  Al
  Al3      1.0000 0.50000  0.50000  0.50000  Biso   1.000  Al
  Al4      1.0000 0.00000  0.00000  0.00000  Biso   1.000  Al
  F1       1.0000 0.75000  0.54113  0.15272  Biso   1.000  F 
  F2       1.0000 0.75000  0.04113  0.34728  Biso   1.000  F 
  F3       1.0000 0.25000  0.45887  0.84728  Biso   1.000  F 
  F4       1.0000 0.25000  0.95887  0.65272  Biso   1.000  F 
  F5       1.0000 0.75000  0.47001  0.51681  Biso   1.000  F 
  F6       1.0000 0.75000  0.97001  0.98319  Biso   1.000  F 
  F7       1.0000 0.25000  0.52999  0.48319  Biso   1.000  F 
  F8       1.0000 0.25000  0.02999  0.01681  Biso   1.000  F 
  F9       1.0000 0.00078  0.36771  0.35020  Biso   1.000  F 
  F10      1.0000 0.49922  0.86771  0.14980  Biso   1.000  F 
  F11      1.0000 0.50078  0.63229  0.64980  Biso   1.000  F 
  F12      1.0000 0.99922  0.13229  0.85020  Biso   1.000  F 
  F13      1.0000 0.99922  0.63229  0.64980  Biso   1.000  F 
  F14      1.0000 0.50078  0.13229  0.85020  Biso   1.000  F 
  F15      1.0000 0.49922  0.36771  0.35020  Biso   1.000  F 
  F16      1.0000 0.00078  0.86771  0.14980  Biso   1.000  F 
  F17      1.0000 0.53158  0.20430  0.09515  Biso   1.000  F 
  F18      1.0000 0.96842  0.70430  0.40485  Biso   1.000  F 
  F19      1.0000 0.03158  0.79570  0.90485  Biso   1.000  F 
  F20      1.0000 0.46842  0.29570  0.59515  Biso   1.000  F 
  F21      1.0000 0.46842  0.79570  0.90485  Biso   1.000  F 
  F22      1.0000 0.03158  0.29570  0.59515  Biso   1.000  F 
  F23      1.0000 0.96842  0.20430  0.09515  Biso   1.000  F 
  F24      1.0000 0.53158  0.70430  0.40485  Biso   1.000  F 
