data_image0
_cell_length_a       7.00999
_cell_length_b       7.00999
_cell_length_c       7.22979
_cell_angle_alpha    90
_cell_angle_beta     90
_cell_angle_gamma    119.932

_symmetry_space_group_name_H-M    "P 1"
_symmetry_int_tables_number       1

loop_
  _symmetry_equiv_pos_as_xyz
  'x, y, z'

loop_
  _atom_site_label
  _atom_site_occupancy
  _atom_site_fract_x
  _atom_site_fract_y
  _atom_site_fract_z
  _atom_site_thermal_displace_type
  _atom_site_B_iso_or_equiv
  _atom_site_type_symbol
  Al1      1.0000 0.50000  0.50000  0.00000  Biso   1.000  Al
  Al2      1.0000 0.50000  0.50000  0.50000  Biso   1.000  Al
  Al3      1.0000 1.00000  0.50000  0.00000  Biso   1.000  Al
  Al4      1.0000 0.50000  1.00000  0.50000  Biso   1.000  Al
  Al5      1.0000 1.00000  0.50000  0.50000  Biso   1.000  Al
  Al6      1.0000 0.50000  1.00000  0.00000  Biso   1.000  Al
  F1       1.0000 0.78792  0.21208  0.52572  Biso   1.000  F 
  F2       1.0000 0.78792  0.21208  0.97428  Biso   1.000  F 
  F3       1.0000 0.21208  0.78792  0.02572  Biso   1.000  F 
  F4       1.0000 0.21208  0.78792  0.47428  Biso   1.000  F 
  F5       1.0000 0.21040  0.42064  0.97985  Biso   1.000  F 
  F6       1.0000 0.57936  0.78960  0.52015  Biso   1.000  F 
  F7       1.0000 0.78960  0.57936  0.47985  Biso   1.000  F 
  F8       1.0000 0.57936  0.78960  0.97985  Biso   1.000  F 
  F9       1.0000 0.78960  0.57936  0.02015  Biso   1.000  F 
  F10      1.0000 0.42064  0.21040  0.47985  Biso   1.000  F 
  F11      1.0000 0.21040  0.42064  0.52015  Biso   1.000  F 
  F12      1.0000 0.42064  0.21040  0.02015  Biso   1.000  F 
  F13      1.0000 0.48225  0.51775  0.25000  Biso   1.000  F 
  F14      1.0000 0.51775  0.48225  0.75000  Biso   1.000  F 
  F15      1.0000 0.99456  0.46391  0.25000  Biso   1.000  F 
  F16      1.0000 0.53609  0.00544  0.25000  Biso   1.000  F 
  F17      1.0000 0.00544  0.53609  0.75000  Biso   1.000  F 
  F18      1.0000 0.46391  0.99456  0.75000  Biso   1.000  F 
