data_image0
_cell_length_a       5.05356
_cell_length_b       5.05356
_cell_length_c       9.24092
_cell_angle_alpha    90
_cell_angle_beta     90
_cell_angle_gamma    120

_symmetry_space_group_name_H-M    "P 1"
_symmetry_int_tables_number       1

loop_
  _symmetry_equiv_pos_as_xyz
  'x, y, z'

loop_
  _atom_site_label
  _atom_site_occupancy
  _atom_site_fract_x
  _atom_site_fract_y
  _atom_site_fract_z
  _atom_site_thermal_displace_type
  _atom_site_B_iso_or_equiv
  _atom_site_type_symbol
  Li1      1.0000 0.33333  0.66667  0.25000  Biso   1.000  Li
  Li2      1.0000 0.66667  0.33333  0.75000  Biso   1.000  Li
  Pd1      1.0000 0.00000  0.00000  0.50000  Biso   1.000  Pd
  Pd2      1.0000 0.00000  0.00000  0.00000  Biso   1.000  Pd
  Al1      1.0000 0.66667  0.33333  0.25000  Biso   1.000  Al
  Al2      1.0000 0.33333  0.66667  0.75000  Biso   1.000  Al
  F1       1.0000 0.97228  0.34402  0.36108  Biso   1.000  F 
  F2       1.0000 0.37174  0.02772  0.36108  Biso   1.000  F 
  F3       1.0000 0.65598  0.62826  0.36108  Biso   1.000  F 
  F4       1.0000 0.02772  0.37174  0.86108  Biso   1.000  F 
  F5       1.0000 0.34402  0.97228  0.86108  Biso   1.000  F 
  F6       1.0000 0.62826  0.65598  0.86108  Biso   1.000  F 
  F7       1.0000 0.02772  0.65598  0.63892  Biso   1.000  F 
  F8       1.0000 0.62826  0.97228  0.63892  Biso   1.000  F 
  F9       1.0000 0.34402  0.37174  0.63892  Biso   1.000  F 
  F10      1.0000 0.97228  0.62826  0.13892  Biso   1.000  F 
  F11      1.0000 0.65598  0.02772  0.13892  Biso   1.000  F 
  F12      1.0000 0.37174  0.34402  0.13892  Biso   1.000  F 
