data_image0
_cell_length_a       9.60764
_cell_length_b       5.37321
_cell_length_c       7.28618
_cell_angle_alpha    69.1727
_cell_angle_beta     90
_cell_angle_gamma    90

_symmetry_space_group_name_H-M    "P 1"
_symmetry_int_tables_number       1

loop_
  _symmetry_equiv_pos_as_xyz
  'x, y, z'

loop_
  _atom_site_label
  _atom_site_occupancy
  _atom_site_fract_x
  _atom_site_fract_y
  _atom_site_fract_z
  _atom_site_thermal_displace_type
  _atom_site_B_iso_or_equiv
  _atom_site_type_symbol
  Mn1      1.0000 0.50000  0.00000  0.50000  Biso   1.000  Mn
  Mn2      1.0000 0.00000  0.00000  0.00000  Biso   1.000  Mn
  Mn3      1.0000 0.50000  0.00000  0.00000  Biso   1.000  Mn
  Mn4      1.0000 0.00000  0.00000  0.50000  Biso   1.000  Mn
  Al1      1.0000 0.25000  0.58803  0.35254  Biso   1.000  Al
  Al2      1.0000 0.25000  0.58803  0.85254  Biso   1.000  Al
  Al3      1.0000 0.75000  0.41197  0.64746  Biso   1.000  Al
  Al4      1.0000 0.75000  0.41197  0.14746  Biso   1.000  Al
  F1       1.0000 0.38289  0.33965  0.42215  Biso   1.000  F 
  F2       1.0000 0.38289  0.33965  0.92215  Biso   1.000  F 
  F3       1.0000 0.61711  0.66035  0.57785  Biso   1.000  F 
  F4       1.0000 0.61711  0.66035  0.07785  Biso   1.000  F 
  F5       1.0000 0.11711  0.33965  0.42215  Biso   1.000  F 
  F6       1.0000 0.11711  0.33965  0.92215  Biso   1.000  F 
  F7       1.0000 0.88289  0.66035  0.57785  Biso   1.000  F 
  F8       1.0000 0.88289  0.66035  0.07785  Biso   1.000  F 
  F9       1.0000 0.38531  0.85320  0.28051  Biso   1.000  F 
  F10      1.0000 0.38531  0.85320  0.78051  Biso   1.000  F 
  F11      1.0000 0.61469  0.14680  0.71949  Biso   1.000  F 
  F12      1.0000 0.61469  0.14680  0.21949  Biso   1.000  F 
  F13      1.0000 0.11469  0.85320  0.28051  Biso   1.000  F 
  F14      1.0000 0.11469  0.85320  0.78051  Biso   1.000  F 
  F15      1.0000 0.88531  0.14680  0.71949  Biso   1.000  F 
  F16      1.0000 0.88531  0.14680  0.21949  Biso   1.000  F 
  F17      1.0000 0.25000  0.61492  0.59555  Biso   1.000  F 
  F18      1.0000 0.25000  0.61492  0.09555  Biso   1.000  F 
  F19      1.0000 0.75000  0.38508  0.40445  Biso   1.000  F 
  F20      1.0000 0.75000  0.38508  0.90445  Biso   1.000  F 
