data_image0
_cell_length_a       5.13977
_cell_length_b       5.13976
_cell_length_c       6.30845
_cell_angle_alpha    90.0001
_cell_angle_beta     90.0002
_cell_angle_gamma    120

_symmetry_space_group_name_H-M    "P 1"
_symmetry_int_tables_number       1

loop_
  _symmetry_equiv_pos_as_xyz
  'x, y, z'

loop_
  _atom_site_label
  _atom_site_occupancy
  _atom_site_fract_x
  _atom_site_fract_y
  _atom_site_fract_z
  _atom_site_thermal_displace_type
  _atom_site_B_iso_or_equiv
  _atom_site_type_symbol
  Al1      1.0000 0.00000  0.00000  0.00000  Biso   1.000  Al
  Al2      1.0000 0.33332  0.66666  0.66667  Biso   1.000  Al
  Al3      1.0000 0.66666  0.33334  0.33333  Biso   1.000  Al
  F1       1.0000 0.50281  0.50286  0.49997  Biso   1.000  F 
  F2       1.0000 0.99995  0.49714  0.50003  Biso   1.000  F 
  F3       1.0000 0.49710  0.00000  0.50000  Biso   1.000  F 
  F4       1.0000 0.83513  0.66678  0.16668  Biso   1.000  F 
  F5       1.0000 0.16835  0.33322  0.83332  Biso   1.000  F 
  F6       1.0000 0.16488  0.83157  0.83340  Biso   1.000  F 
  F7       1.0000 0.66675  0.83510  0.83333  Biso   1.000  F 
  F8       1.0000 0.83165  0.16490  0.16667  Biso   1.000  F 
  F9       1.0000 0.33331  0.16843  0.16660  Biso   1.000  F 
