data_image0
_cell_length_a       8.21825
_cell_length_b       8.21825
_cell_length_c       8.21825
_cell_angle_alpha    90
_cell_angle_beta     90
_cell_angle_gamma    90

_symmetry_space_group_name_H-M    "P 1"
_symmetry_int_tables_number       1

loop_
  _symmetry_equiv_pos_as_xyz
  'x, y, z'

loop_
  _atom_site_label
  _atom_site_occupancy
  _atom_site_fract_x
  _atom_site_fract_y
  _atom_site_fract_z
  _atom_site_thermal_displace_type
  _atom_site_B_iso_or_equiv
  _atom_site_type_symbol
  Na1      1.0000 0.00000  0.00000  0.50000  Biso   1.000  Na
  Na2      1.0000 0.00000  0.50000  0.00000  Biso   1.000  Na
  Na3      1.0000 0.50000  0.00000  0.00000  Biso   1.000  Na
  Na4      1.0000 0.50000  0.50000  0.50000  Biso   1.000  Na
  K1       1.0000 0.25086  0.74914  0.24914  Biso   1.000  K 
  K2       1.0000 0.74914  0.24914  0.25086  Biso   1.000  K 
  K3       1.0000 0.24914  0.25086  0.74914  Biso   1.000  K 
  K4       1.0000 0.75086  0.75086  0.75086  Biso   1.000  K 
  K5       1.0000 0.74914  0.25086  0.75086  Biso   1.000  K 
  K6       1.0000 0.25086  0.75086  0.74914  Biso   1.000  K 
  K7       1.0000 0.75086  0.74914  0.25086  Biso   1.000  K 
  K8       1.0000 0.24914  0.24914  0.24914  Biso   1.000  K 
  Al1      1.0000 0.50000  0.50000  0.00000  Biso   1.000  Al
  Al2      1.0000 0.50000  0.00000  0.50000  Biso   1.000  Al
  Al3      1.0000 0.00000  0.50000  0.50000  Biso   1.000  Al
  Al4      1.0000 0.00000  0.00000  0.00000  Biso   1.000  Al
  F1       1.0000 0.50027  0.72386  0.00055  Biso   1.000  F 
  F2       1.0000 0.49973  0.22386  0.49945  Biso   1.000  F 
  F3       1.0000 0.99973  0.27614  0.50055  Biso   1.000  F 
  F4       1.0000 0.00027  0.77614  0.99945  Biso   1.000  F 
  F5       1.0000 0.00055  0.50027  0.72386  Biso   1.000  F 
  F6       1.0000 0.49945  0.49973  0.22386  Biso   1.000  F 
  F7       1.0000 0.50055  0.99973  0.27614  Biso   1.000  F 
  F8       1.0000 0.99945  0.00027  0.77614  Biso   1.000  F 
  F9       1.0000 0.72386  0.00055  0.50027  Biso   1.000  F 
  F10      1.0000 0.22386  0.49945  0.49973  Biso   1.000  F 
  F11      1.0000 0.27614  0.50055  0.99973  Biso   1.000  F 
  F12      1.0000 0.77614  0.99945  0.00027  Biso   1.000  F 
  F13      1.0000 0.49973  0.27614  0.99945  Biso   1.000  F 
  F14      1.0000 0.50027  0.77614  0.50055  Biso   1.000  F 
  F15      1.0000 0.00027  0.72386  0.49945  Biso   1.000  F 
  F16      1.0000 0.99973  0.22386  0.00055  Biso   1.000  F 
  F17      1.0000 0.99945  0.49973  0.27614  Biso   1.000  F 
  F18      1.0000 0.50055  0.50027  0.77614  Biso   1.000  F 
  F19      1.0000 0.49945  0.00027  0.72386  Biso   1.000  F 
  F20      1.0000 0.00055  0.99973  0.22386  Biso   1.000  F 
  F21      1.0000 0.27614  0.99945  0.49973  Biso   1.000  F 
  F22      1.0000 0.77614  0.50055  0.50027  Biso   1.000  F 
  F23      1.0000 0.72386  0.49945  0.00027  Biso   1.000  F 
  F24      1.0000 0.22386  0.00055  0.99973  Biso   1.000  F 
