data_image0
_cell_length_a       5.69344
_cell_length_b       5.92518
_cell_length_c       12.7659
_cell_angle_alpha    99.2084
_cell_angle_beta     93.7983
_cell_angle_gamma    90.4121

_symmetry_space_group_name_H-M    "P 1"
_symmetry_int_tables_number       1

loop_
  _symmetry_equiv_pos_as_xyz
  'x, y, z'

loop_
  _atom_site_label
  _atom_site_occupancy
  _atom_site_fract_x
  _atom_site_fract_y
  _atom_site_fract_z
  _atom_site_thermal_displace_type
  _atom_site_B_iso_or_equiv
  _atom_site_type_symbol
  Pb1      1.0000 0.68250  0.87851  0.63378  Biso   1.000  Pb
  Pb2      1.0000 0.31750  0.12149  0.36622  Biso   1.000  Pb
  Pb3      1.0000 0.25060  0.93771  0.88034  Biso   1.000  Pb
  Pb4      1.0000 0.74940  0.06229  0.11966  Biso   1.000  Pb
  Pb5      1.0000 0.73090  0.48888  0.88577  Biso   1.000  Pb
  Pb6      1.0000 0.26910  0.51112  0.11423  Biso   1.000  Pb
  Al1      1.0000 0.19573  0.38057  0.68983  Biso   1.000  Al
  Al2      1.0000 0.80427  0.61943  0.31017  Biso   1.000  Al
  F1       1.0000 0.93753  0.23297  0.72972  Biso   1.000  F 
  F2       1.0000 0.06247  0.76703  0.27028  Biso   1.000  F 
  F3       1.0000 0.27492  0.49295  0.83281  Biso   1.000  F 
  F4       1.0000 0.72508  0.50705  0.16719  Biso   1.000  F 
  F5       1.0000 0.12348  0.27554  0.54991  Biso   1.000  F 
  F6       1.0000 0.87652  0.72446  0.45009  Biso   1.000  F 
  F7       1.0000 0.47160  0.51095  0.65763  Biso   1.000  F 
  F8       1.0000 0.52840  0.48905  0.34237  Biso   1.000  F 
  F9       1.0000 0.36556  0.12333  0.70888  Biso   1.000  F 
  F10      1.0000 0.63444  0.87667  0.29112  Biso   1.000  F 
  F11      1.0000 0.03532  0.64424  0.68846  Biso   1.000  F 
  F12      1.0000 0.96468  0.35576  0.31154  Biso   1.000  F 
  F13      1.0000 0.49727  0.76023  0.01201  Biso   1.000  F 
  F14      1.0000 0.50273  0.23977  0.98799  Biso   1.000  F 
  F15      1.0000 0.99768  0.74947  0.00304  Biso   1.000  F 
  F16      1.0000 0.00232  0.25053  0.99696  Biso   1.000  F 
  F17      1.0000 0.65447  0.85987  0.82580  Biso   1.000  F 
  F18      1.0000 0.34553  0.14013  0.17420  Biso   1.000  F 
  O1       1.0000 0.34031  0.78987  0.48317  Biso   1.000  O 
  O2       1.0000 0.65969  0.21013  0.51683  Biso   1.000  O 
  H1       1.0000 0.40141  0.66596  0.43021  Biso   1.000  H 
  H2       1.0000 0.59859  0.33404  0.56979  Biso   1.000  H 
  H3       1.0000 0.17101  0.75248  0.48706  Biso   1.000  H 
  H4       1.0000 0.82899  0.24752  0.51294  Biso   1.000  H 
