data_image0
_cell_length_a       7.18194
_cell_length_b       7.18194
_cell_length_c       7.18194
_cell_angle_alpha    120.727
_cell_angle_beta     118.418
_cell_angle_gamma    90.7537

_symmetry_space_group_name_H-M    "P 1"
_symmetry_int_tables_number       1

loop_
  _symmetry_equiv_pos_as_xyz
  'x, y, z'

loop_
  _atom_site_label
  _atom_site_occupancy
  _atom_site_fract_x
  _atom_site_fract_y
  _atom_site_fract_z
  _atom_site_thermal_displace_type
  _atom_site_B_iso_or_equiv
  _atom_site_type_symbol
  Na1      1.0000 0.49984  0.24910  0.74894  Biso   1.000  Na
  Na2      1.0000 0.49984  0.75090  0.25073  Biso   1.000  Na
  Na3      1.0000 0.49663  0.74786  0.74876  Biso   1.000  Na
  Na4      1.0000 0.00090  0.25214  0.74876  Biso   1.000  Na
  Mg1      1.0000 0.99957  0.24961  0.24918  Biso   1.000  Mg
  Mg2      1.0000 0.99957  0.75039  0.74997  Biso   1.000  Mg
  Al1      1.0000 0.99939  0.74977  0.24963  Biso   1.000  Al
  Al2      1.0000 0.49986  0.25023  0.24963  Biso   1.000  Al
  F1       1.0000 0.88590  0.00000  0.88590  Biso   1.000  F 
  F2       1.0000 0.11355  0.50000  0.61355  Biso   1.000  F 
  F3       1.0000 0.30980  0.83647  0.47333  Biso   1.000  F 
  F4       1.0000 0.63686  0.16353  0.47333  Biso   1.000  F 
  F5       1.0000 0.68915  0.66278  0.02637  Biso   1.000  F 
  F6       1.0000 0.36359  0.33722  0.02637  Biso   1.000  F 
  F7       1.0000 0.04412  0.04871  0.36752  Biso   1.000  F 
  F8       1.0000 0.31881  0.95129  0.99541  Biso   1.000  F 
  F9       1.0000 0.04412  0.67660  0.99541  Biso   1.000  F 
  F10      1.0000 0.31881  0.32340  0.36752  Biso   1.000  F 
  F11      1.0000 0.68065  0.17621  0.13156  Biso   1.000  F 
  F12      1.0000 0.95535  0.82379  0.50444  Biso   1.000  F 
  F13      1.0000 0.68065  0.54908  0.50444  Biso   1.000  F 
  F14      1.0000 0.95535  0.45092  0.13156  Biso   1.000  F 
