data_image0
_cell_length_a       11.6229
_cell_length_b       11.6229
_cell_length_c       3.63577
_cell_angle_alpha    90
_cell_angle_beta     90
_cell_angle_gamma    90

_symmetry_space_group_name_H-M    "P 1"
_symmetry_int_tables_number       1

loop_
  _symmetry_equiv_pos_as_xyz
  'x, y, z'

loop_
  _atom_site_label
  _atom_site_occupancy
  _atom_site_fract_x
  _atom_site_fract_y
  _atom_site_fract_z
  _atom_site_thermal_displace_type
  _atom_site_B_iso_or_equiv
  _atom_site_type_symbol
  Al1      1.0000 0.42423  0.29196  0.00000  Biso   1.000  Al
  Al2      1.0000 0.79196  0.92423  0.00000  Biso   1.000  Al
  Al3      1.0000 0.20804  0.07577  0.00000  Biso   1.000  Al
  Al4      1.0000 0.70804  0.42423  0.00000  Biso   1.000  Al
  Al5      1.0000 0.29196  0.57577  0.00000  Biso   1.000  Al
  Al6      1.0000 0.92423  0.20804  0.00000  Biso   1.000  Al
  Al7      1.0000 0.07577  0.79196  0.00000  Biso   1.000  Al
  Al8      1.0000 0.57577  0.70804  0.00000  Biso   1.000  Al
  Al9      1.0000 0.50000  0.00000  0.00000  Biso   1.000  Al
  Al10     1.0000 0.00000  0.50000  0.00000  Biso   1.000  Al
  F1       1.0000 0.35862  0.43262  0.00000  Biso   1.000  F 
  F2       1.0000 0.93262  0.85862  0.00000  Biso   1.000  F 
  F3       1.0000 0.06738  0.14138  0.00000  Biso   1.000  F 
  F4       1.0000 0.56738  0.35862  0.00000  Biso   1.000  F 
  F5       1.0000 0.43262  0.64138  0.00000  Biso   1.000  F 
  F6       1.0000 0.85862  0.06738  0.00000  Biso   1.000  F 
  F7       1.0000 0.14138  0.93262  0.00000  Biso   1.000  F 
  F8       1.0000 0.64138  0.56738  0.00000  Biso   1.000  F 
  F9       1.0000 0.50009  0.15549  0.00000  Biso   1.000  F 
  F10      1.0000 0.65549  0.00009  0.00000  Biso   1.000  F 
  F11      1.0000 0.34451  0.99991  0.00000  Biso   1.000  F 
  F12      1.0000 0.84451  0.50009  0.00000  Biso   1.000  F 
  F13      1.0000 0.15549  0.49991  0.00000  Biso   1.000  F 
  F14      1.0000 0.00009  0.34451  0.00000  Biso   1.000  F 
  F15      1.0000 0.99991  0.65549  0.00000  Biso   1.000  F 
  F16      1.0000 0.49991  0.84451  0.00000  Biso   1.000  F 
  F17      1.0000 0.42305  0.29183  0.50000  Biso   1.000  F 
  F18      1.0000 0.79183  0.92305  0.50000  Biso   1.000  F 
  F19      1.0000 0.20817  0.07695  0.50000  Biso   1.000  F 
  F20      1.0000 0.70817  0.42305  0.50000  Biso   1.000  F 
  F21      1.0000 0.29183  0.57695  0.50000  Biso   1.000  F 
  F22      1.0000 0.92305  0.20817  0.50000  Biso   1.000  F 
  F23      1.0000 0.07695  0.79183  0.50000  Biso   1.000  F 
  F24      1.0000 0.57695  0.70817  0.50000  Biso   1.000  F 
  F25      1.0000 0.28471  0.21529  0.00000  Biso   1.000  F 
  F26      1.0000 0.71529  0.78471  0.00000  Biso   1.000  F 
  F27      1.0000 0.78471  0.28471  0.00000  Biso   1.000  F 
  F28      1.0000 0.21529  0.71529  0.00000  Biso   1.000  F 
  F29      1.0000 0.50000  0.00000  0.50000  Biso   1.000  F 
  F30      1.0000 0.00000  0.50000  0.50000  Biso   1.000  F 
