data_image0
_cell_length_a       7.18182
_cell_length_b       7.18182
_cell_length_c       7.18182
_cell_angle_alpha    120.729
_cell_angle_beta     118.42
_cell_angle_gamma    90.7504

_symmetry_space_group_name_H-M    "P 1"
_symmetry_int_tables_number       1

loop_
  _symmetry_equiv_pos_as_xyz
  'x, y, z'

loop_
  _atom_site_label
  _atom_site_occupancy
  _atom_site_fract_x
  _atom_site_fract_y
  _atom_site_fract_z
  _atom_site_thermal_displace_type
  _atom_site_B_iso_or_equiv
  _atom_site_type_symbol
  Na1      1.0000 0.75054  0.00054  0.75000  Biso   1.000  Na
  Na2      1.0000 0.74946  0.49946  0.25000  Biso   1.000  Na
  Na3      1.0000 0.25000  0.50233  0.25233  Biso   1.000  Na
  Na4      1.0000 0.75000  0.99767  0.24767  Biso   1.000  Na
  Mg1      1.0000 0.25021  0.00021  0.25000  Biso   1.000  Mg
  Mg2      1.0000 0.24979  0.49979  0.75000  Biso   1.000  Mg
  Al1      1.0000 0.75000  0.50039  0.75039  Biso   1.000  Al
  Al2      1.0000 0.25000  0.99961  0.74961  Biso   1.000  Al
  F1       1.0000 0.13633  0.25000  0.38633  Biso   1.000  F 
  F2       1.0000 0.36367  0.75000  0.11367  Biso   1.000  F 
  F3       1.0000 0.88669  0.41367  0.97400  Biso   1.000  F 
  F4       1.0000 0.56033  0.08633  0.97302  Biso   1.000  F 
  F5       1.0000 0.93967  0.91269  0.52600  Biso   1.000  F 
  F6       1.0000 0.61331  0.58731  0.52698  Biso   1.000  F 
  F7       1.0000 0.56920  0.20143  0.49612  Biso   1.000  F 
  F8       1.0000 0.29469  0.29857  0.86777  Biso   1.000  F 
  F9       1.0000 0.20531  0.07307  0.00388  Biso   1.000  F 
  F10      1.0000 0.93080  0.42693  0.63223  Biso   1.000  F 
  F11      1.0000 0.20578  0.70070  0.63164  Biso   1.000  F 
  F12      1.0000 0.93094  0.79930  0.00508  Biso   1.000  F 
  F13      1.0000 0.56906  0.57414  0.86836  Biso   1.000  F 
  F14      1.0000 0.29422  0.92586  0.49492  Biso   1.000  F 
