data_image0
_cell_length_a       5.10217
_cell_length_b       5.10217
_cell_length_c       5.10217
_cell_angle_alpha    58.5663
_cell_angle_beta     58.5663
_cell_angle_gamma    58.5663

_symmetry_space_group_name_H-M    "P 1"
_symmetry_int_tables_number       1

loop_
  _symmetry_equiv_pos_as_xyz
  'x, y, z'

loop_
  _atom_site_label
  _atom_site_occupancy
  _atom_site_fract_x
  _atom_site_fract_y
  _atom_site_fract_z
  _atom_site_thermal_displace_type
  _atom_site_B_iso_or_equiv
  _atom_site_type_symbol
  Al1      1.0000 0.00000  0.00000  0.00000  Biso   1.000  Al
  Al2      1.0000 0.50000  0.50000  0.50000  Biso   1.000  Al
  F1       1.0000 0.17519  0.32479  0.74975  Biso   1.000  F 
  F2       1.0000 0.67521  0.25025  0.82481  Biso   1.000  F 
  F3       1.0000 0.25025  0.82481  0.67521  Biso   1.000  F 
  F4       1.0000 0.82481  0.67521  0.25025  Biso   1.000  F 
  F5       1.0000 0.32479  0.74975  0.17519  Biso   1.000  F 
  F6       1.0000 0.74975  0.17519  0.32479  Biso   1.000  F 
