data_image0
_cell_length_a       10.3196
_cell_length_b       10.3196
_cell_length_c       7.26994
_cell_angle_alpha    90
_cell_angle_beta     90
_cell_angle_gamma    90

_symmetry_space_group_name_H-M    "P 1"
_symmetry_int_tables_number       1

loop_
  _symmetry_equiv_pos_as_xyz
  'x, y, z'

loop_
  _atom_site_label
  _atom_site_occupancy
  _atom_site_fract_x
  _atom_site_fract_y
  _atom_site_fract_z
  _atom_site_thermal_displace_type
  _atom_site_B_iso_or_equiv
  _atom_site_type_symbol
  Al1      1.0000 0.00000  0.00000  0.00000  Biso   1.000  Al
  Al2      1.0000 0.50000  0.50000  0.00000  Biso   1.000  Al
  Al3      1.0000 0.00000  0.50000  0.00000  Biso   1.000  Al
  Al4      1.0000 0.50000  0.00000  0.00000  Biso   1.000  Al
  Al5      1.0000 0.25000  0.91350  0.32835  Biso   1.000  Al
  Al6      1.0000 0.41350  0.75000  0.67165  Biso   1.000  Al
  Al7      1.0000 0.08650  0.75000  0.67165  Biso   1.000  Al
  Al8      1.0000 0.75000  0.41350  0.67165  Biso   1.000  Al
  Al9      1.0000 0.75000  0.08650  0.67165  Biso   1.000  Al
  Al10     1.0000 0.58650  0.25000  0.32835  Biso   1.000  Al
  Al11     1.0000 0.91350  0.25000  0.32835  Biso   1.000  Al
  Al12     1.0000 0.25000  0.58650  0.32835  Biso   1.000  Al
  Al13     1.0000 0.25000  0.25000  0.41225  Biso   1.000  Al
  Al14     1.0000 0.75000  0.75000  0.58775  Biso   1.000  Al
  Al15     1.0000 0.25000  0.25000  0.90922  Biso   1.000  Al
  Al16     1.0000 0.75000  0.75000  0.09078  Biso   1.000  Al
  F1       1.0000 0.62224  0.05202  0.83715  Biso   1.000  F 
  F2       1.0000 0.55202  0.12224  0.16285  Biso   1.000  F 
  F3       1.0000 0.94798  0.12224  0.16285  Biso   1.000  F 
  F4       1.0000 0.55202  0.37776  0.16285  Biso   1.000  F 
  F5       1.0000 0.94798  0.37776  0.16285  Biso   1.000  F 
  F6       1.0000 0.12224  0.55202  0.16285  Biso   1.000  F 
  F7       1.0000 0.37776  0.55202  0.16285  Biso   1.000  F 
  F8       1.0000 0.12224  0.94798  0.16285  Biso   1.000  F 
  F9       1.0000 0.37776  0.94798  0.16285  Biso   1.000  F 
  F10      1.0000 0.44798  0.87776  0.83715  Biso   1.000  F 
  F11      1.0000 0.05202  0.87776  0.83715  Biso   1.000  F 
  F12      1.0000 0.44798  0.62224  0.83715  Biso   1.000  F 
  F13      1.0000 0.05202  0.62224  0.83715  Biso   1.000  F 
  F14      1.0000 0.87776  0.44798  0.83715  Biso   1.000  F 
  F15      1.0000 0.62224  0.44798  0.83715  Biso   1.000  F 
  F16      1.0000 0.87776  0.05202  0.83715  Biso   1.000  F 
  F17      1.0000 0.25000  0.07634  0.41088  Biso   1.000  F 
  F18      1.0000 0.57634  0.75000  0.58912  Biso   1.000  F 
  F19      1.0000 0.92366  0.75000  0.58912  Biso   1.000  F 
  F20      1.0000 0.75000  0.57634  0.58912  Biso   1.000  F 
  F21      1.0000 0.75000  0.92366  0.58912  Biso   1.000  F 
  F22      1.0000 0.42366  0.25000  0.41088  Biso   1.000  F 
  F23      1.0000 0.07634  0.25000  0.41088  Biso   1.000  F 
  F24      1.0000 0.25000  0.42366  0.41088  Biso   1.000  F 
  F25      1.0000 0.12121  0.12121  0.90899  Biso   1.000  F 
  F26      1.0000 0.62121  0.62121  0.09101  Biso   1.000  F 
  F27      1.0000 0.87879  0.62121  0.09101  Biso   1.000  F 
  F28      1.0000 0.62121  0.87879  0.09101  Biso   1.000  F 
  F29      1.0000 0.87879  0.87879  0.09101  Biso   1.000  F 
  F30      1.0000 0.37879  0.37879  0.90899  Biso   1.000  F 
  F31      1.0000 0.12121  0.37879  0.90899  Biso   1.000  F 
  F32      1.0000 0.37879  0.12121  0.90899  Biso   1.000  F 
  F33      1.0000 0.12648  0.87352  0.50000  Biso   1.000  F 
  F34      1.0000 0.37352  0.62648  0.50000  Biso   1.000  F 
  F35      1.0000 0.12648  0.62648  0.50000  Biso   1.000  F 
  F36      1.0000 0.37352  0.87352  0.50000  Biso   1.000  F 
  F37      1.0000 0.62648  0.37352  0.50000  Biso   1.000  F 
  F38      1.0000 0.87352  0.37352  0.50000  Biso   1.000  F 
  F39      1.0000 0.62648  0.12648  0.50000  Biso   1.000  F 
  F40      1.0000 0.87352  0.12648  0.50000  Biso   1.000  F 
  F41      1.0000 0.75000  0.25000  0.24449  Biso   1.000  F 
  F42      1.0000 0.75000  0.25000  0.75551  Biso   1.000  F 
  F43      1.0000 0.25000  0.75000  0.75551  Biso   1.000  F 
  F44      1.0000 0.25000  0.75000  0.24449  Biso   1.000  F 
  F45      1.0000 0.25000  0.25000  0.66206  Biso   1.000  F 
  F46      1.0000 0.75000  0.75000  0.33794  Biso   1.000  F 
  F47      1.0000 0.25000  0.25000  0.15857  Biso   1.000  F 
  F48      1.0000 0.75000  0.75000  0.84143  Biso   1.000  F 
