data_image0
_cell_length_a       5.02974
_cell_length_b       5.02974
_cell_length_c       11.8525
_cell_angle_alpha    90
_cell_angle_beta     90
_cell_angle_gamma    95.1434

_symmetry_space_group_name_H-M    "P 1"
_symmetry_int_tables_number       1

loop_
  _symmetry_equiv_pos_as_xyz
  'x, y, z'

loop_
  _atom_site_label
  _atom_site_occupancy
  _atom_site_fract_x
  _atom_site_fract_y
  _atom_site_fract_z
  _atom_site_thermal_displace_type
  _atom_site_B_iso_or_equiv
  _atom_site_type_symbol
  K1       1.0000 0.02170  0.97830  0.25000  Biso   1.000  K 
  K2       1.0000 0.97830  0.02170  0.75000  Biso   1.000  K 
  Al1      1.0000 0.57230  0.57230  0.50000  Biso   1.000  Al
  Al2      1.0000 0.42770  0.42770  0.00000  Biso   1.000  Al
  N1       1.0000 0.29457  0.57762  0.39929  Biso   1.000  N 
  N2       1.0000 0.42238  0.70543  0.10071  Biso   1.000  N 
  N3       1.0000 0.70543  0.42238  0.89929  Biso   1.000  N 
  N4       1.0000 0.57762  0.29457  0.60071  Biso   1.000  N 
  N5       1.0000 0.52592  0.28307  0.71861  Biso   1.000  N 
  N6       1.0000 0.71693  0.47408  0.78139  Biso   1.000  N 
  N7       1.0000 0.47408  0.71693  0.21861  Biso   1.000  N 
  N8       1.0000 0.28307  0.52592  0.28139  Biso   1.000  N 
  H1       1.0000 0.35577  0.75255  0.74009  Biso   1.000  H 
  H2       1.0000 0.24745  0.64423  0.75991  Biso   1.000  H 
  H3       1.0000 0.64423  0.24745  0.24009  Biso   1.000  H 
  H4       1.0000 0.75255  0.35577  0.25991  Biso   1.000  H 
  H5       1.0000 0.82199  0.59160  0.40946  Biso   1.000  H 
  H6       1.0000 0.40840  0.17801  0.09054  Biso   1.000  H 
  H7       1.0000 0.17801  0.40840  0.90946  Biso   1.000  H 
  H8       1.0000 0.59160  0.82199  0.59054  Biso   1.000  H 
  H9       1.0000 0.40931  0.90761  0.07568  Biso   1.000  H 
  H10      1.0000 0.09239  0.59069  0.42432  Biso   1.000  H 
  H11      1.0000 0.59069  0.09239  0.57568  Biso   1.000  H 
  H12      1.0000 0.90761  0.40931  0.92432  Biso   1.000  H 
  H13      1.0000 0.65484  0.63983  0.23638  Biso   1.000  H 
  H14      1.0000 0.36017  0.34516  0.26362  Biso   1.000  H 
  H15      1.0000 0.34516  0.36017  0.73638  Biso   1.000  H 
  H16      1.0000 0.63983  0.65484  0.76362  Biso   1.000  H 
