data_image0
_cell_length_a       4.29844
_cell_length_b       4.29844
_cell_length_c       4.29844
_cell_angle_alpha    98.3093
_cell_angle_beta     98.3093
_cell_angle_gamma    98.3093

_symmetry_space_group_name_H-M    "P 1"
_symmetry_int_tables_number       1

loop_
  _symmetry_equiv_pos_as_xyz
  'x, y, z'

loop_
  _atom_site_label
  _atom_site_occupancy
  _atom_site_fract_x
  _atom_site_fract_y
  _atom_site_fract_z
  _atom_site_thermal_displace_type
  _atom_site_B_iso_or_equiv
  _atom_site_type_symbol
  La1      1.0000 0.50000  0.50000  0.50000  Biso   1.000  La
  Al1      1.0000 0.00000  0.00000  0.00000  Biso   1.000  Al
  H1       1.0000 0.93957  0.29427  0.29427  Biso   1.000  H 
  H2       1.0000 0.29427  0.29427  0.93957  Biso   1.000  H 
  H3       1.0000 0.29427  0.93957  0.29427  Biso   1.000  H 
  H4       1.0000 0.06043  0.70573  0.70573  Biso   1.000  H 
  H5       1.0000 0.70573  0.70573  0.06043  Biso   1.000  H 
  H6       1.0000 0.70573  0.06043  0.70573  Biso   1.000  H 
