data_image0
_cell_length_a       4.93019
_cell_length_b       9.95365
_cell_length_c       9.34098
_cell_angle_alpha    64.5664
_cell_angle_beta     94.2642
_cell_angle_gamma    50.5051

_symmetry_space_group_name_H-M    "P 1"
_symmetry_int_tables_number       1

loop_
  _symmetry_equiv_pos_as_xyz
  'x, y, z'

loop_
  _atom_site_label
  _atom_site_occupancy
  _atom_site_fract_x
  _atom_site_fract_y
  _atom_site_fract_z
  _atom_site_thermal_displace_type
  _atom_site_B_iso_or_equiv
  _atom_site_type_symbol
  Si1      1.0000 0.17148  0.59962  0.51781  Biso   1.000  Si
  Si2      1.0000 0.13641  0.71209  0.00616  Biso   1.000  Si
  Si3      1.0000 0.70128  0.43281  0.90731  Biso   1.000  Si
  Si4      1.0000 0.96016  0.44030  0.12134  Biso   1.000  Si
  Al1      1.0000 0.52965  0.21957  0.87394  Biso   1.000  Al
  Al2      1.0000 0.86784  0.06455  0.29329  Biso   1.000  Al
  O1       1.0000 0.57354  0.38667  0.53524  Biso   1.000  O 
  O2       1.0000 0.81892  0.61749  0.46135  Biso   1.000  O 
  O3       1.0000 0.33414  0.50753  0.73206  Biso   1.000  O 
  O4       1.0000 0.89396  0.92439  0.00224  Biso   1.000  O 
  O5       1.0000 0.27997  0.05420  0.54342  Biso   1.000  O 
  O6       1.0000 0.60402  0.52072  0.18717  Biso   1.000  O 
  O7       1.0000 0.24788  0.71008  0.84351  Biso   1.000  O 
  O8       1.0000 0.27997  0.93882  0.48449  Biso   1.000  O 
  O9       1.0000 0.90618  0.64543  0.03174  Biso   1.000  O 
  O10      1.0000 0.76060  0.21412  0.05629  Biso   1.000  O 
  O11      1.0000 0.41807  0.22171  0.30186  Biso   1.000  O 
  O12      1.0000 0.03090  0.35071  0.83204  Biso   1.000  O 
  O13      1.0000 0.67195  0.20048  0.69592  Biso   1.000  O 
  O14      1.0000 0.04536  0.81452  0.36091  Biso   1.000  O 
  Li1      1.0000 0.05279  0.99073  0.66615  Biso   1.000  Li
  Li2      1.0000 0.43794  0.70255  0.26530  Biso   1.000  Li
  H1       1.0000 0.81624  0.54198  0.57251  Biso   1.000  H 
  H2       1.0000 0.35457  0.11534  0.46269  Biso   1.000  H 
