data_image0
_cell_length_a       8.40899
_cell_length_b       8.40899
_cell_length_c       5.19751
_cell_angle_alpha    71.6449
_cell_angle_beta     71.6449
_cell_angle_gamma    109.545

_symmetry_space_group_name_H-M    "P 1"
_symmetry_int_tables_number       1

loop_
  _symmetry_equiv_pos_as_xyz
  'x, y, z'

loop_
  _atom_site_label
  _atom_site_occupancy
  _atom_site_fract_x
  _atom_site_fract_y
  _atom_site_fract_z
  _atom_site_thermal_displace_type
  _atom_site_B_iso_or_equiv
  _atom_site_type_symbol
  I1       1.0000 0.35030  0.64970  0.75000  Biso   1.000  I 
  I2       1.0000 0.64970  0.35030  0.25000  Biso   1.000  I 
  Al1      1.0000 0.04866  0.95134  0.25000  Biso   1.000  Al
  Al2      1.0000 0.95134  0.04866  0.75000  Biso   1.000  Al
  O1       1.0000 0.08518  0.16201  0.32464  Biso   1.000  O 
  O2       1.0000 0.83799  0.91482  0.17536  Biso   1.000  O 
  O3       1.0000 0.91482  0.83799  0.67536  Biso   1.000  O 
  O4       1.0000 0.16201  0.08518  0.82464  Biso   1.000  O 
  O5       1.0000 0.01948  0.70119  0.27589  Biso   1.000  O 
  O6       1.0000 0.29881  0.98052  0.22411  Biso   1.000  O 
  O7       1.0000 0.98052  0.29881  0.72411  Biso   1.000  O 
  O8       1.0000 0.70119  0.01948  0.77589  Biso   1.000  O 
  H1       1.0000 0.15710  0.29744  0.17490  Biso   1.000  H 
  H2       1.0000 0.70256  0.84290  0.32510  Biso   1.000  H 
  H3       1.0000 0.84290  0.70256  0.82510  Biso   1.000  H 
  H4       1.0000 0.29744  0.15710  0.67490  Biso   1.000  H 
  H5       1.0000 0.89829  0.61171  0.29984  Biso   1.000  H 
  H6       1.0000 0.38829  0.10171  0.20016  Biso   1.000  H 
  H7       1.0000 0.10171  0.38829  0.70016  Biso   1.000  H 
  H8       1.0000 0.61171  0.89829  0.79984  Biso   1.000  H 
  H9       1.0000 0.12173  0.69736  0.12077  Biso   1.000  H 
  H10      1.0000 0.30264  0.87826  0.37923  Biso   1.000  H 
  H11      1.0000 0.87826  0.30264  0.87923  Biso   1.000  H 
  H12      1.0000 0.69736  0.12174  0.62077  Biso   1.000  H 
