data_image0
_cell_length_a       9.60739
_cell_length_b       9.60739
_cell_length_c       9.60739
_cell_angle_alpha    34.0471
_cell_angle_beta     34.0471
_cell_angle_gamma    34.0471

_symmetry_space_group_name_H-M    "P 1"
_symmetry_int_tables_number       1

loop_
  _symmetry_equiv_pos_as_xyz
  'x, y, z'

loop_
  _atom_site_label
  _atom_site_occupancy
  _atom_site_fract_x
  _atom_site_fract_y
  _atom_site_fract_z
  _atom_site_thermal_displace_type
  _atom_site_B_iso_or_equiv
  _atom_site_type_symbol
  Li1      1.0000 0.59266  0.59266  0.59266  Biso   1.000  Li
  Li2      1.0000 0.40734  0.40734  0.40734  Biso   1.000  Li
  Al1      1.0000 0.00000  0.00000  0.00000  Biso   1.000  Al
  Al2      1.0000 0.50000  0.50000  0.50000  Biso   1.000  Al
  K1       1.0000 0.87284  0.87284  0.87284  Biso   1.000  K 
  K2       1.0000 0.12716  0.12716  0.12716  Biso   1.000  K 
  K3       1.0000 0.71388  0.71388  0.71388  Biso   1.000  K 
  K4       1.0000 0.28612  0.28612  0.28612  Biso   1.000  K 
  H1       1.0000 0.82642  0.39633  0.39633  Biso   1.000  H 
  H2       1.0000 0.39633  0.39633  0.82642  Biso   1.000  H 
  H3       1.0000 0.39633  0.82642  0.39633  Biso   1.000  H 
  H4       1.0000 0.17358  0.60367  0.60367  Biso   1.000  H 
  H5       1.0000 0.60367  0.60367  0.17358  Biso   1.000  H 
  H6       1.0000 0.60367  0.17358  0.60367  Biso   1.000  H 
  H7       1.0000 0.73609  0.18811  0.18811  Biso   1.000  H 
  H8       1.0000 0.18811  0.18811  0.73609  Biso   1.000  H 
  H9       1.0000 0.18811  0.73609  0.18811  Biso   1.000  H 
  H10      1.0000 0.26391  0.81189  0.81189  Biso   1.000  H 
  H11      1.0000 0.81189  0.81189  0.26391  Biso   1.000  H 
  H12      1.0000 0.81189  0.26391  0.81189  Biso   1.000  H 
