data_image0
_cell_length_a       5.07807
_cell_length_b       5.07807
_cell_length_c       7.07052
_cell_angle_alpha    70.1068
_cell_angle_beta     70.1068
_cell_angle_gamma    90.3553

_symmetry_space_group_name_H-M    "P 1"
_symmetry_int_tables_number       1

loop_
  _symmetry_equiv_pos_as_xyz
  'x, y, z'

loop_
  _atom_site_label
  _atom_site_occupancy
  _atom_site_fract_x
  _atom_site_fract_y
  _atom_site_fract_z
  _atom_site_thermal_displace_type
  _atom_site_B_iso_or_equiv
  _atom_site_type_symbol
  Al1      1.0000 0.50000  0.50000  0.50000  Biso   1.000  Al
  Al2      1.0000 0.50000  0.50000  0.00000  Biso   1.000  Al
  S1       1.0000 0.87095  0.12905  0.25000  Biso   1.000  S 
  S2       1.0000 0.12905  0.87095  0.75000  Biso   1.000  S 
  O1       1.0000 0.18147  0.19290  0.14799  Biso   1.000  O 
  O2       1.0000 0.80710  0.81853  0.35201  Biso   1.000  O 
  O3       1.0000 0.81853  0.80710  0.85201  Biso   1.000  O 
  O4       1.0000 0.19290  0.18147  0.64799  Biso   1.000  O 
  O5       1.0000 0.76451  0.26048  0.41523  Biso   1.000  O 
  O6       1.0000 0.73952  0.23549  0.08477  Biso   1.000  O 
  O7       1.0000 0.23549  0.73952  0.58477  Biso   1.000  O 
  O8       1.0000 0.26048  0.76451  0.91523  Biso   1.000  O 
  O9       1.0000 0.41459  0.58541  0.25000  Biso   1.000  O 
  O10      1.0000 0.58541  0.41459  0.75000  Biso   1.000  O 
  H1       1.0000 0.27895  0.72105  0.25000  Biso   1.000  H 
  H2       1.0000 0.72105  0.27895  0.75000  Biso   1.000  H 
