data_image0
_cell_length_a       10.9814
_cell_length_b       11.8334
_cell_length_c       16.2255
_cell_angle_alpha    90
_cell_angle_beta     90
_cell_angle_gamma    90

_symmetry_space_group_name_H-M    "P 1"
_symmetry_int_tables_number       1

loop_
  _symmetry_equiv_pos_as_xyz
  'x, y, z'

loop_
  _atom_site_label
  _atom_site_occupancy
  _atom_site_fract_x
  _atom_site_fract_y
  _atom_site_fract_z
  _atom_site_thermal_displace_type
  _atom_site_B_iso_or_equiv
  _atom_site_type_symbol
  I1       1.0000 0.08384  0.00567  0.03355  Biso   1.000  I 
  I2       1.0000 0.91616  0.99433  0.53355  Biso   1.000  I 
  I3       1.0000 0.58384  0.49433  0.53355  Biso   1.000  I 
  I4       1.0000 0.41616  0.50567  0.03355  Biso   1.000  I 
  I5       1.0000 0.77164  0.88117  0.15766  Biso   1.000  I 
  I6       1.0000 0.22836  0.11883  0.65766  Biso   1.000  I 
  I7       1.0000 0.27164  0.61883  0.65766  Biso   1.000  I 
  I8       1.0000 0.72836  0.38117  0.15766  Biso   1.000  I 
  I9       1.0000 0.01375  0.09406  0.28264  Biso   1.000  I 
  I10      1.0000 0.98625  0.90594  0.78264  Biso   1.000  I 
  I11      1.0000 0.51375  0.40594  0.78264  Biso   1.000  I 
  I12      1.0000 0.48625  0.59406  0.28264  Biso   1.000  I 
  I13      1.0000 0.12341  0.76625  0.21080  Biso   1.000  I 
  I14      1.0000 0.87659  0.23375  0.71080  Biso   1.000  I 
  I15      1.0000 0.62341  0.73375  0.71080  Biso   1.000  I 
  I16      1.0000 0.37659  0.26625  0.21080  Biso   1.000  I 
  I17      1.0000 0.22384  0.52815  0.38919  Biso   1.000  I 
  I18      1.0000 0.77616  0.47185  0.88919  Biso   1.000  I 
  I19      1.0000 0.72384  0.97185  0.88919  Biso   1.000  I 
  I20      1.0000 0.27616  0.02815  0.38919  Biso   1.000  I 
  I21      1.0000 0.97206  0.40003  0.55804  Biso   1.000  I 
  I22      1.0000 0.02794  0.59997  0.05804  Biso   1.000  I 
  I23      1.0000 0.47206  0.09997  0.05804  Biso   1.000  I 
  I24      1.0000 0.52794  0.90003  0.55804  Biso   1.000  I 
  I25      1.0000 0.88195  0.47205  0.32369  Biso   1.000  I 
  I26      1.0000 0.11805  0.52795  0.82369  Biso   1.000  I 
  I27      1.0000 0.38195  0.02795  0.82369  Biso   1.000  I 
  I28      1.0000 0.61805  0.97205  0.32369  Biso   1.000  I 
  I29      1.0000 0.96879  0.72646  0.48444  Biso   1.000  I 
  I30      1.0000 0.03121  0.27354  0.98444  Biso   1.000  I 
  I31      1.0000 0.46879  0.77354  0.98444  Biso   1.000  I 
  I32      1.0000 0.53121  0.22646  0.48444  Biso   1.000  I 
  Al1      1.0000 0.99569  0.94095  0.17256  Biso   1.000  Al
  Al2      1.0000 0.00431  0.05905  0.67256  Biso   1.000  Al
  Al3      1.0000 0.49569  0.55905  0.67256  Biso   1.000  Al
  Al4      1.0000 0.50431  0.44095  0.17256  Biso   1.000  Al
  P1       1.0000 0.01283  0.52989  0.44088  Biso   1.000  P 
  P2       1.0000 0.98717  0.47011  0.94088  Biso   1.000  P 
  P3       1.0000 0.51283  0.97011  0.94088  Biso   1.000  P 
  P4       1.0000 0.48717  0.02989  0.44088  Biso   1.000  P 
