data_image0
_cell_length_a       6.53046
_cell_length_b       10.0258
_cell_length_c       12.6255
_cell_angle_alpha    71.6997
_cell_angle_beta     90
_cell_angle_gamma    90

_symmetry_space_group_name_H-M    "P 1"
_symmetry_int_tables_number       1

loop_
  _symmetry_equiv_pos_as_xyz
  'x, y, z'

loop_
  _atom_site_label
  _atom_site_occupancy
  _atom_site_fract_x
  _atom_site_fract_y
  _atom_site_fract_z
  _atom_site_thermal_displace_type
  _atom_site_B_iso_or_equiv
  _atom_site_type_symbol
  Al1      1.0000 0.99738  0.81085  0.04690  Biso   1.000  Al
  Al2      1.0000 0.50262  0.81085  0.54690  Biso   1.000  Al
  Al3      1.0000 0.00262  0.18915  0.95310  Biso   1.000  Al
  Al4      1.0000 0.49738  0.18915  0.45310  Biso   1.000  Al
  I1       1.0000 0.22755  0.67720  0.20180  Biso   1.000  I 
  I2       1.0000 0.27245  0.67720  0.70180  Biso   1.000  I 
  I3       1.0000 0.77245  0.32280  0.79820  Biso   1.000  I 
  I4       1.0000 0.72755  0.32280  0.29820  Biso   1.000  I 
  I5       1.0000 0.76352  0.68166  0.95668  Biso   1.000  I 
  I6       1.0000 0.73648  0.68166  0.45668  Biso   1.000  I 
  I7       1.0000 0.23648  0.31834  0.04332  Biso   1.000  I 
  I8       1.0000 0.26352  0.31834  0.54332  Biso   1.000  I 
  I9       1.0000 0.21587  0.99882  0.88916  Biso   1.000  I 
  I10      1.0000 0.28413  0.99882  0.38916  Biso   1.000  I 
  I11      1.0000 0.78413  0.00118  0.11084  Biso   1.000  I 
  I12      1.0000 0.71587  0.00118  0.61084  Biso   1.000  I 
