data_image0
_cell_length_a       10.7175
_cell_length_b       10.7175
_cell_length_c       7.76461
_cell_angle_alpha    71.036
_cell_angle_beta     71.036
_cell_angle_gamma    79.8011

_symmetry_space_group_name_H-M    "P 1"
_symmetry_int_tables_number       1

loop_
  _symmetry_equiv_pos_as_xyz
  'x, y, z'

loop_
  _atom_site_label
  _atom_site_occupancy
  _atom_site_fract_x
  _atom_site_fract_y
  _atom_site_fract_z
  _atom_site_thermal_displace_type
  _atom_site_B_iso_or_equiv
  _atom_site_type_symbol
  Sb1      1.0000 0.80760  0.19240  0.00000  Biso   1.000  Sb
  Sb2      1.0000 0.19240  0.80760  0.00000  Biso   1.000  Sb
  Al1      1.0000 0.80122  0.80122  0.35301  Biso   1.000  Al
  Al2      1.0000 0.19878  0.19878  0.64699  Biso   1.000  Al
  I1       1.0000 0.56879  0.21536  0.92322  Biso   1.000  I 
  I2       1.0000 0.21536  0.56879  0.92322  Biso   1.000  I 
  I3       1.0000 0.43121  0.78464  0.07678  Biso   1.000  I 
  I4       1.0000 0.78464  0.43121  0.07678  Biso   1.000  I 
  I5       1.0000 0.71985  0.02655  0.43250  Biso   1.000  I 
  I6       1.0000 0.02655  0.71985  0.43250  Biso   1.000  I 
  I7       1.0000 0.28015  0.97345  0.56750  Biso   1.000  I 
  I8       1.0000 0.97345  0.28015  0.56750  Biso   1.000  I 
  I9       1.0000 0.85415  0.85415  0.98835  Biso   1.000  I 
  I10      1.0000 0.14585  0.14585  0.01165  Biso   1.000  I 
  I11      1.0000 0.63463  0.63463  0.53787  Biso   1.000  I 
  I12      1.0000 0.36537  0.36537  0.46213  Biso   1.000  I 
