data_image0
_cell_length_a       5.59077
_cell_length_b       5.59077
_cell_length_c       7.80622
_cell_angle_alpha    90
_cell_angle_beta     90
_cell_angle_gamma    90

_symmetry_space_group_name_H-M    "P 1"
_symmetry_int_tables_number       1

loop_
  _symmetry_equiv_pos_as_xyz
  'x, y, z'

loop_
  _atom_site_label
  _atom_site_occupancy
  _atom_site_fract_x
  _atom_site_fract_y
  _atom_site_fract_z
  _atom_site_thermal_displace_type
  _atom_site_B_iso_or_equiv
  _atom_site_type_symbol
  Al1      1.0000 0.78542  0.21458  0.75000  Biso   1.000  Al
  Al2      1.0000 0.21458  0.78542  0.25000  Biso   1.000  Al
  Al3      1.0000 0.71458  0.71458  0.50000  Biso   1.000  Al
  Al4      1.0000 0.28542  0.28542  0.00000  Biso   1.000  Al
  K1       1.0000 0.22372  0.77628  0.75000  Biso   1.000  K 
  K2       1.0000 0.77628  0.22372  0.25000  Biso   1.000  K 
  K3       1.0000 0.27628  0.27628  0.50000  Biso   1.000  K 
  K4       1.0000 0.72372  0.72372  0.00000  Biso   1.000  K 
  O1       1.0000 0.74511  0.41839  0.57907  Biso   1.000  O 
  O2       1.0000 0.25489  0.58161  0.07907  Biso   1.000  O 
  O3       1.0000 0.91839  0.75489  0.32907  Biso   1.000  O 
  O4       1.0000 0.08161  0.24511  0.82907  Biso   1.000  O 
  O5       1.0000 0.58161  0.25489  0.92093  Biso   1.000  O 
  O6       1.0000 0.41839  0.74511  0.42093  Biso   1.000  O 
  O7       1.0000 0.75489  0.91839  0.67093  Biso   1.000  O 
  O8       1.0000 0.24511  0.08161  0.17093  Biso   1.000  O 
