data_image0
_cell_length_a       8.64121
_cell_length_b       8.64121
_cell_length_c       8.64121
_cell_angle_alpha    137.251
_cell_angle_beta     135.313
_cell_angle_gamma    63.5572

_symmetry_space_group_name_H-M    "P 1"
_symmetry_int_tables_number       1

loop_
  _symmetry_equiv_pos_as_xyz
  'x, y, z'

loop_
  _atom_site_label
  _atom_site_occupancy
  _atom_site_fract_x
  _atom_site_fract_y
  _atom_site_fract_z
  _atom_site_thermal_displace_type
  _atom_site_B_iso_or_equiv
  _atom_site_type_symbol
  K1       1.0000 0.08454  0.82334  0.26121  Biso   1.000  K 
  K2       1.0000 0.91546  0.17666  0.73879  Biso   1.000  K 
  K3       1.0000 0.43787  0.67666  0.76121  Biso   1.000  K 
  K4       1.0000 0.56213  0.32334  0.23879  Biso   1.000  K 
  Na1      1.0000 0.50000  0.75000  0.25000  Biso   1.000  Na
  Na2      1.0000 0.50000  0.25000  0.75000  Biso   1.000  Na
  Al1      1.0000 0.00000  0.25000  0.25000  Biso   1.000  Al
  Al2      1.0000 0.00000  0.75000  0.75000  Biso   1.000  Al
  P1       1.0000 0.10647  0.40744  0.69903  Biso   1.000  P 
  P2       1.0000 0.89353  0.59256  0.30097  Biso   1.000  P 
  P3       1.0000 0.29159  0.09256  0.19903  Biso   1.000  P 
  P4       1.0000 0.70841  0.90744  0.80097  Biso   1.000  P 
