data_image0
_cell_length_a       6.6471
_cell_length_b       6.6471
_cell_length_c       6.59327
_cell_angle_alpha    83.2766
_cell_angle_beta     83.2766
_cell_angle_gamma    115.636

_symmetry_space_group_name_H-M    "P 1"
_symmetry_int_tables_number       1

loop_
  _symmetry_equiv_pos_as_xyz
  'x, y, z'

loop_
  _atom_site_label
  _atom_site_occupancy
  _atom_site_fract_x
  _atom_site_fract_y
  _atom_site_fract_z
  _atom_site_thermal_displace_type
  _atom_site_B_iso_or_equiv
  _atom_site_type_symbol
  K1       1.0000 0.26535  0.73465  0.00000  Biso   1.000  K 
  K2       1.0000 0.73465  0.26535  0.00000  Biso   1.000  K 
  K3       1.0000 0.19797  0.80203  0.50000  Biso   1.000  K 
  K4       1.0000 0.80203  0.19797  0.50000  Biso   1.000  K 
  K5       1.0000 0.62887  0.62887  0.64824  Biso   1.000  K 
  K6       1.0000 0.37113  0.37113  0.35176  Biso   1.000  K 
  Al1      1.0000 0.83939  0.83939  0.14578  Biso   1.000  Al
  Al2      1.0000 0.16061  0.16061  0.85422  Biso   1.000  Al
  O1       1.0000 0.10089  0.10089  0.14177  Biso   1.000  O 
  O2       1.0000 0.89911  0.89911  0.85823  Biso   1.000  O 
  O3       1.0000 0.84937  0.58990  0.26168  Biso   1.000  O 
  O4       1.0000 0.41010  0.15063  0.73832  Biso   1.000  O 
  O5       1.0000 0.15063  0.41010  0.73832  Biso   1.000  O 
  O6       1.0000 0.58990  0.84937  0.26168  Biso   1.000  O 
