data_image0
_cell_length_a       8.55814
_cell_length_b       8.55814
_cell_length_c       8.55814
_cell_angle_alpha    138.137
_cell_angle_beta     137.932
_cell_angle_gamma    60.8501

_symmetry_space_group_name_H-M    "P 1"
_symmetry_int_tables_number       1

loop_
  _symmetry_equiv_pos_as_xyz
  'x, y, z'

loop_
  _atom_site_label
  _atom_site_occupancy
  _atom_site_fract_x
  _atom_site_fract_y
  _atom_site_fract_z
  _atom_site_thermal_displace_type
  _atom_site_B_iso_or_equiv
  _atom_site_type_symbol
  K1       1.0000 0.10022  0.82529  0.27493  Biso   1.000  K 
  K2       1.0000 0.89978  0.17471  0.72507  Biso   1.000  K 
  K3       1.0000 0.55036  0.32529  0.22507  Biso   1.000  K 
  K4       1.0000 0.44964  0.67471  0.77493  Biso   1.000  K 
  Li1      1.0000 0.50000  0.75000  0.25000  Biso   1.000  Li
  Li2      1.0000 0.50000  0.25000  0.75000  Biso   1.000  Li
  Al1      1.0000 1.00000  0.75000  0.75000  Biso   1.000  Al
  Al2      1.0000 0.00000  0.25000  0.25000  Biso   1.000  Al
  P1       1.0000 0.86878  0.58978  0.27900  Biso   1.000  P 
  P2       1.0000 0.13122  0.41022  0.72100  Biso   1.000  P 
  P3       1.0000 0.31079  0.08978  0.22100  Biso   1.000  P 
  P4       1.0000 0.68921  0.91022  0.77900  Biso   1.000  P 
