data_image0
_cell_length_a       13.9973
_cell_length_b       8.73484
_cell_length_c       11.4056
_cell_angle_alpha    52.281
_cell_angle_beta     90
_cell_angle_gamma    90

_symmetry_space_group_name_H-M    "P 1"
_symmetry_int_tables_number       1

loop_
  _symmetry_equiv_pos_as_xyz
  'x, y, z'

loop_
  _atom_site_label
  _atom_site_occupancy
  _atom_site_fract_x
  _atom_site_fract_y
  _atom_site_fract_z
  _atom_site_thermal_displace_type
  _atom_site_B_iso_or_equiv
  _atom_site_type_symbol
  K1       1.0000 0.40914  0.33806  0.89754  Biso   1.000  K 
  K2       1.0000 0.90914  0.66194  0.60246  Biso   1.000  K 
  K3       1.0000 0.59086  0.66194  0.10246  Biso   1.000  K 
  K4       1.0000 0.09086  0.33806  0.39754  Biso   1.000  K 
  K5       1.0000 0.68796  0.12321  0.08833  Biso   1.000  K 
  K6       1.0000 0.18796  0.87679  0.41167  Biso   1.000  K 
  K7       1.0000 0.31204  0.87679  0.91167  Biso   1.000  K 
  K8       1.0000 0.81204  0.12321  0.58833  Biso   1.000  K 
  K9       1.0000 0.11988  0.37091  0.97616  Biso   1.000  K 
  K10      1.0000 0.61988  0.62909  0.52384  Biso   1.000  K 
  K11      1.0000 0.88012  0.62909  0.02384  Biso   1.000  K 
  K12      1.0000 0.38012  0.37091  0.47616  Biso   1.000  K 
  Al1      1.0000 0.43832  0.06478  0.33813  Biso   1.000  Al
  Al2      1.0000 0.93832  0.93522  0.16187  Biso   1.000  Al
  Al3      1.0000 0.56168  0.93522  0.66187  Biso   1.000  Al
  Al4      1.0000 0.06168  0.06478  0.83813  Biso   1.000  Al
  Te1      1.0000 0.88861  0.16233  0.87201  Biso   1.000  Te
  Te2      1.0000 0.38861  0.83767  0.62799  Biso   1.000  Te
  Te3      1.0000 0.11139  0.83767  0.12799  Biso   1.000  Te
  Te4      1.0000 0.61139  0.16233  0.37201  Biso   1.000  Te
  Te5      1.0000 0.18209  0.35598  0.68571  Biso   1.000  Te
  Te6      1.0000 0.68209  0.64402  0.81429  Biso   1.000  Te
  Te7      1.0000 0.81791  0.64402  0.31429  Biso   1.000  Te
  Te8      1.0000 0.31791  0.35598  0.18571  Biso   1.000  Te
  Te9      1.0000 0.05205  0.86999  0.73373  Biso   1.000  Te
  Te10     1.0000 0.55205  0.13001  0.76627  Biso   1.000  Te
  Te11     1.0000 0.94795  0.13001  0.26627  Biso   1.000  Te
  Te12     1.0000 0.44795  0.86999  0.23373  Biso   1.000  Te
