data_image0
_cell_length_a       10.2883
_cell_length_b       10.2883
_cell_length_c       10.6169
_cell_angle_alpha    90
_cell_angle_beta     90
_cell_angle_gamma    120

_symmetry_space_group_name_H-M    "P 1"
_symmetry_int_tables_number       1

loop_
  _symmetry_equiv_pos_as_xyz
  'x, y, z'

loop_
  _atom_site_label
  _atom_site_occupancy
  _atom_site_fract_x
  _atom_site_fract_y
  _atom_site_fract_z
  _atom_site_thermal_displace_type
  _atom_site_B_iso_or_equiv
  _atom_site_type_symbol
  K1       1.0000 0.20726  0.79274  0.95796  Biso   1.000  K 
  K2       1.0000 0.20726  0.41451  0.95796  Biso   1.000  K 
  K3       1.0000 0.58549  0.79274  0.95796  Biso   1.000  K 
  K4       1.0000 0.79274  0.20726  0.04204  Biso   1.000  K 
  K5       1.0000 0.79274  0.58549  0.04204  Biso   1.000  K 
  K6       1.0000 0.41451  0.20726  0.04204  Biso   1.000  K 
  K7       1.0000 0.79274  0.20726  0.45796  Biso   1.000  K 
  K8       1.0000 0.79274  0.58549  0.45796  Biso   1.000  K 
  K9       1.0000 0.41451  0.20726  0.45796  Biso   1.000  K 
  K10      1.0000 0.20726  0.79274  0.54204  Biso   1.000  K 
  K11      1.0000 0.20726  0.41451  0.54204  Biso   1.000  K 
  K12      1.0000 0.58549  0.79274  0.54204  Biso   1.000  K 
  Al1      1.0000 0.33333  0.66667  0.25000  Biso   1.000  Al
  Al2      1.0000 0.66667  0.33333  0.75000  Biso   1.000  Al
  Sb1      1.0000 0.48124  0.96248  0.25000  Biso   1.000  Sb
  Sb2      1.0000 0.03752  0.51876  0.25000  Biso   1.000  Sb
  Sb3      1.0000 0.48124  0.51876  0.25000  Biso   1.000  Sb
  Sb4      1.0000 0.51876  0.03752  0.75000  Biso   1.000  Sb
  Sb5      1.0000 0.96248  0.48124  0.75000  Biso   1.000  Sb
  Sb6      1.0000 0.51876  0.48124  0.75000  Biso   1.000  Sb
  Sb7      1.0000 0.00000  0.00000  0.50000  Biso   1.000  Sb
  Sb8      1.0000 0.00000  0.00000  0.00000  Biso   1.000  Sb
  Na1      1.0000 0.11583  0.88417  0.25000  Biso   1.000  Na
  Na2      1.0000 0.11583  0.23165  0.25000  Biso   1.000  Na
  Na3      1.0000 0.76835  0.88417  0.25000  Biso   1.000  Na
  Na4      1.0000 0.88417  0.11583  0.75000  Biso   1.000  Na
  Na5      1.0000 0.88417  0.76835  0.75000  Biso   1.000  Na
  Na6      1.0000 0.23165  0.11583  0.75000  Biso   1.000  Na
