data_image0
_cell_length_a       6.21614
_cell_length_b       6.21614
_cell_length_c       12.6023
_cell_angle_alpha    87.5303
_cell_angle_beta     87.5303
_cell_angle_gamma    113.537

_symmetry_space_group_name_H-M    "P 1"
_symmetry_int_tables_number       1

loop_
  _symmetry_equiv_pos_as_xyz
  'x, y, z'

loop_
  _atom_site_label
  _atom_site_occupancy
  _atom_site_fract_x
  _atom_site_fract_y
  _atom_site_fract_z
  _atom_site_thermal_displace_type
  _atom_site_B_iso_or_equiv
  _atom_site_type_symbol
  Al1      1.0000 0.51692  0.48308  0.25000  Biso   1.000  Al
  Al2      1.0000 0.48308  0.51692  0.75000  Biso   1.000  Al
  P1       1.0000 0.98867  0.31247  0.27888  Biso   1.000  P 
  P2       1.0000 0.68753  0.01133  0.22112  Biso   1.000  P 
  P3       1.0000 0.01133  0.68753  0.72112  Biso   1.000  P 
  P4       1.0000 0.31247  0.98867  0.77888  Biso   1.000  P 
  Li1      1.0000 0.15186  0.84814  0.25000  Biso   1.000  Li
  Li2      1.0000 0.84814  0.15186  0.75000  Biso   1.000  Li
  S1       1.0000 0.19172  0.19976  0.36889  Biso   1.000  S 
  S2       1.0000 0.80024  0.80828  0.13111  Biso   1.000  S 
  S3       1.0000 0.80828  0.80024  0.63111  Biso   1.000  S 
  S4       1.0000 0.19976  0.19172  0.86889  Biso   1.000  S 
  S5       1.0000 0.19206  0.49686  0.14736  Biso   1.000  S 
  S6       1.0000 0.50314  0.80794  0.35264  Biso   1.000  S 
  S7       1.0000 0.80794  0.50314  0.85264  Biso   1.000  S 
  S8       1.0000 0.49686  0.19206  0.64736  Biso   1.000  S 
  S9       1.0000 0.82191  0.48101  0.36405  Biso   1.000  S 
  S10      1.0000 0.51899  0.17809  0.13595  Biso   1.000  S 
  S11      1.0000 0.17809  0.51899  0.63595  Biso   1.000  S 
  S12      1.0000 0.48101  0.82191  0.86405  Biso   1.000  S 
