data_image0
_cell_length_a       8.17331
_cell_length_b       8.17331
_cell_length_c       8.17331
_cell_angle_alpha    109.471
_cell_angle_beta     109.471
_cell_angle_gamma    109.471

_symmetry_space_group_name_H-M    "P 1"
_symmetry_int_tables_number       1

loop_
  _symmetry_equiv_pos_as_xyz
  'x, y, z'

loop_
  _atom_site_label
  _atom_site_occupancy
  _atom_site_fract_x
  _atom_site_fract_y
  _atom_site_fract_z
  _atom_site_thermal_displace_type
  _atom_site_B_iso_or_equiv
  _atom_site_type_symbol
  N1       1.0000 0.00000  0.00000  0.00000  Biso   1.000  N 
  N2       1.0000 0.50000  0.50000  0.00000  Biso   1.000  N 
  N3       1.0000 0.50000  0.00000  0.50000  Biso   1.000  N 
  N4       1.0000 0.00000  0.50000  0.50000  Biso   1.000  N 
  N5       1.0000 0.25000  0.46796  0.21796  Biso   1.000  N 
  N6       1.0000 0.71796  0.25000  0.96796  Biso   1.000  N 
  N7       1.0000 0.78204  0.75000  0.53204  Biso   1.000  N 
  N8       1.0000 0.96796  0.71796  0.25000  Biso   1.000  N 
  N9       1.0000 0.53204  0.78204  0.75000  Biso   1.000  N 
  N10      1.0000 0.25000  0.96796  0.71796  Biso   1.000  N 
  N11      1.0000 0.75000  0.53204  0.78204  Biso   1.000  N 
  N12      1.0000 0.28204  0.75000  0.03204  Biso   1.000  N 
  N13      1.0000 0.21796  0.25000  0.46796  Biso   1.000  N 
  N14      1.0000 0.03204  0.28204  0.75000  Biso   1.000  N 
  N15      1.0000 0.46796  0.21796  0.25000  Biso   1.000  N 
  N16      1.0000 0.75000  0.03204  0.28204  Biso   1.000  N 
  Al1      1.0000 0.23102  0.23102  0.23102  Biso   1.000  Al
  Al2      1.0000 0.73102  0.50000  0.00000  Biso   1.000  Al
  Al3      1.0000 0.50000  0.00000  0.73102  Biso   1.000  Al
  Al4      1.0000 0.00000  0.73102  0.50000  Biso   1.000  Al
  Al5      1.0000 0.76898  0.76898  0.76898  Biso   1.000  Al
  Al6      1.0000 0.26898  0.50000  0.00000  Biso   1.000  Al
  Al7      1.0000 0.50000  0.00000  0.26898  Biso   1.000  Al
  Al8      1.0000 0.00000  0.26898  0.50000  Biso   1.000  Al
  Li1      1.0000 0.48682  0.26278  0.52774  Biso   1.000  Li
  Li2      1.0000 0.02774  0.76496  0.04091  Biso   1.000  Li
  Li3      1.0000 0.27595  0.73504  0.76278  Biso   1.000  Li
  Li4      1.0000 0.22405  0.98682  0.45909  Biso   1.000  Li
  Li5      1.0000 0.47226  0.51318  0.73722  Biso   1.000  Li
  Li6      1.0000 0.04091  0.02774  0.76496  Biso   1.000  Li
  Li7      1.0000 0.76278  0.27595  0.73504  Biso   1.000  Li
  Li8      1.0000 0.45909  0.22405  0.98682  Biso   1.000  Li
  Li9      1.0000 0.73722  0.47226  0.51318  Biso   1.000  Li
  Li10     1.0000 0.76496  0.04091  0.02774  Biso   1.000  Li
  Li11     1.0000 0.73504  0.76278  0.27595  Biso   1.000  Li
  Li12     1.0000 0.98682  0.45909  0.22405  Biso   1.000  Li
  Li13     1.0000 0.51318  0.73722  0.47226  Biso   1.000  Li
  Li14     1.0000 0.97226  0.23504  0.95909  Biso   1.000  Li
  Li15     1.0000 0.72405  0.26496  0.23722  Biso   1.000  Li
  Li16     1.0000 0.77595  0.01318  0.54091  Biso   1.000  Li
  Li17     1.0000 0.52774  0.48682  0.26278  Biso   1.000  Li
  Li18     1.0000 0.95909  0.97226  0.23504  Biso   1.000  Li
  Li19     1.0000 0.23722  0.72405  0.26496  Biso   1.000  Li
  Li20     1.0000 0.54091  0.77595  0.01318  Biso   1.000  Li
  Li21     1.0000 0.26278  0.52774  0.48682  Biso   1.000  Li
  Li22     1.0000 0.23504  0.95909  0.97226  Biso   1.000  Li
  Li23     1.0000 0.26496  0.23722  0.72405  Biso   1.000  Li
  Li24     1.0000 0.01318  0.54091  0.77595  Biso   1.000  Li
