data_image0
_cell_length_a       10.1848
_cell_length_b       10.1848
_cell_length_c       6.08613
_cell_angle_alpha    90
_cell_angle_beta     90
_cell_angle_gamma    120

_symmetry_space_group_name_H-M    "P 1"
_symmetry_int_tables_number       1

loop_
  _symmetry_equiv_pos_as_xyz
  'x, y, z'

loop_
  _atom_site_label
  _atom_site_occupancy
  _atom_site_fract_x
  _atom_site_fract_y
  _atom_site_fract_z
  _atom_site_thermal_displace_type
  _atom_site_B_iso_or_equiv
  _atom_site_type_symbol
  La1      1.0000 0.76660  0.14245  0.73050  Biso   1.000  La
  La2      1.0000 0.37585  0.23340  0.73050  Biso   1.000  La
  La3      1.0000 0.85755  0.62415  0.73050  Biso   1.000  La
  La4      1.0000 0.23340  0.85755  0.23050  Biso   1.000  La
  La5      1.0000 0.62415  0.76660  0.23050  Biso   1.000  La
  La6      1.0000 0.14245  0.37585  0.23050  Biso   1.000  La
  Mg1      1.0000 0.00000  0.00000  0.51805  Biso   1.000  Mg
  Mg2      1.0000 0.00000  0.00000  0.01805  Biso   1.000  Mg
  Al1      1.0000 0.66667  0.33333  0.14609  Biso   1.000  Al
  Al2      1.0000 0.33333  0.66667  0.64609  Biso   1.000  Al
  S1       1.0000 0.85501  0.09079  0.27485  Biso   1.000  S 
  S2       1.0000 0.23579  0.14499  0.27485  Biso   1.000  S 
  S3       1.0000 0.90921  0.76421  0.27485  Biso   1.000  S 
  S4       1.0000 0.14499  0.90921  0.77485  Biso   1.000  S 
  S5       1.0000 0.76421  0.85501  0.77485  Biso   1.000  S 
  S6       1.0000 0.09079  0.23579  0.77485  Biso   1.000  S 
  S7       1.0000 0.89900  0.41774  0.99625  Biso   1.000  S 
  S8       1.0000 0.51874  0.10100  0.99625  Biso   1.000  S 
  S9       1.0000 0.58226  0.48126  0.99625  Biso   1.000  S 
  S10      1.0000 0.10100  0.58226  0.49625  Biso   1.000  S 
  S11      1.0000 0.48126  0.89900  0.49625  Biso   1.000  S 
  S12      1.0000 0.41774  0.51874  0.49625  Biso   1.000  S 
  S13      1.0000 0.66667  0.33333  0.51308  Biso   1.000  S 
  S14      1.0000 0.33333  0.66667  0.01308  Biso   1.000  S 
