data_image0
_cell_length_a       10.1581
_cell_length_b       10.1581
_cell_length_c       6.1364
_cell_angle_alpha    90
_cell_angle_beta     90
_cell_angle_gamma    120

_symmetry_space_group_name_H-M    "P 1"
_symmetry_int_tables_number       1

loop_
  _symmetry_equiv_pos_as_xyz
  'x, y, z'

loop_
  _atom_site_label
  _atom_site_occupancy
  _atom_site_fract_x
  _atom_site_fract_y
  _atom_site_fract_z
  _atom_site_thermal_displace_type
  _atom_site_B_iso_or_equiv
  _atom_site_type_symbol
  La1      1.0000 0.77019  0.14515  0.73033  Biso   1.000  La
  La2      1.0000 0.37496  0.22981  0.73033  Biso   1.000  La
  La3      1.0000 0.85485  0.62504  0.73033  Biso   1.000  La
  La4      1.0000 0.22981  0.85485  0.23033  Biso   1.000  La
  La5      1.0000 0.62504  0.77019  0.23033  Biso   1.000  La
  La6      1.0000 0.14515  0.37496  0.23033  Biso   1.000  La
  Zn1      1.0000 0.00000  0.00000  0.48292  Biso   1.000  Zn
  Zn2      1.0000 0.00000  0.00000  0.98292  Biso   1.000  Zn
  Al1      1.0000 0.66667  0.33333  0.14678  Biso   1.000  Al
  Al2      1.0000 0.33333  0.66667  0.64678  Biso   1.000  Al
  S1       1.0000 0.85888  0.09225  0.28593  Biso   1.000  S 
  S2       1.0000 0.23338  0.14112  0.28593  Biso   1.000  S 
  S3       1.0000 0.90775  0.76662  0.28593  Biso   1.000  S 
  S4       1.0000 0.14112  0.90775  0.78593  Biso   1.000  S 
  S5       1.0000 0.76662  0.85888  0.78593  Biso   1.000  S 
  S6       1.0000 0.09225  0.23338  0.78593  Biso   1.000  S 
  S7       1.0000 0.89988  0.42030  0.99715  Biso   1.000  S 
  S8       1.0000 0.52042  0.10012  0.99715  Biso   1.000  S 
  S9       1.0000 0.57970  0.47958  0.99715  Biso   1.000  S 
  S10      1.0000 0.10012  0.57970  0.49715  Biso   1.000  S 
  S11      1.0000 0.47958  0.89988  0.49715  Biso   1.000  S 
  S12      1.0000 0.42030  0.52042  0.49715  Biso   1.000  S 
  S13      1.0000 0.66667  0.33333  0.51209  Biso   1.000  S 
  S14      1.0000 0.33333  0.66667  0.01209  Biso   1.000  S 
