data_image0
_cell_length_a       10.4494
_cell_length_b       10.4494
_cell_length_c       5.83859
_cell_angle_alpha    90
_cell_angle_beta     90
_cell_angle_gamma    120

_symmetry_space_group_name_H-M    "P 1"
_symmetry_int_tables_number       1

loop_
  _symmetry_equiv_pos_as_xyz
  'x, y, z'

loop_
  _atom_site_label
  _atom_site_occupancy
  _atom_site_fract_x
  _atom_site_fract_y
  _atom_site_fract_z
  _atom_site_thermal_displace_type
  _atom_site_B_iso_or_equiv
  _atom_site_type_symbol
  La1      1.0000 0.76611  0.14543  0.72662  Biso   1.000  La
  La2      1.0000 0.37932  0.23389  0.72662  Biso   1.000  La
  La3      1.0000 0.85457  0.62068  0.72662  Biso   1.000  La
  La4      1.0000 0.23389  0.85457  0.22662  Biso   1.000  La
  La5      1.0000 0.62068  0.76611  0.22662  Biso   1.000  La
  La6      1.0000 0.14543  0.37932  0.22662  Biso   1.000  La
  Mn1      1.0000 0.00000  0.00000  0.52747  Biso   1.000  Mn
  Mn2      1.0000 0.00000  0.00000  0.02747  Biso   1.000  Mn
  Al1      1.0000 0.66667  0.33333  0.13691  Biso   1.000  Al
  Al2      1.0000 0.33333  0.66667  0.63691  Biso   1.000  Al
  S1       1.0000 0.85885  0.08949  0.27962  Biso   1.000  S 
  S2       1.0000 0.23064  0.14115  0.27962  Biso   1.000  S 
  S3       1.0000 0.91051  0.76936  0.27962  Biso   1.000  S 
  S4       1.0000 0.14115  0.91051  0.77962  Biso   1.000  S 
  S5       1.0000 0.76936  0.85885  0.77962  Biso   1.000  S 
  S6       1.0000 0.08949  0.23064  0.77962  Biso   1.000  S 
  S7       1.0000 0.89775  0.41628  0.99407  Biso   1.000  S 
  S8       1.0000 0.51853  0.10225  0.99407  Biso   1.000  S 
  S9       1.0000 0.58372  0.48147  0.99407  Biso   1.000  S 
  S10      1.0000 0.10225  0.58372  0.49407  Biso   1.000  S 
  S11      1.0000 0.48147  0.89775  0.49407  Biso   1.000  S 
  S12      1.0000 0.41628  0.51853  0.49407  Biso   1.000  S 
  S13      1.0000 0.66667  0.33333  0.51666  Biso   1.000  S 
  S14      1.0000 0.33333  0.66667  0.01666  Biso   1.000  S 
