data_image0
_cell_length_a       10.5496
_cell_length_b       10.5496
_cell_length_c       5.63265
_cell_angle_alpha    90
_cell_angle_beta     90
_cell_angle_gamma    120

_symmetry_space_group_name_H-M    "P 1"
_symmetry_int_tables_number       1

loop_
  _symmetry_equiv_pos_as_xyz
  'x, y, z'

loop_
  _atom_site_label
  _atom_site_occupancy
  _atom_site_fract_x
  _atom_site_fract_y
  _atom_site_fract_z
  _atom_site_thermal_displace_type
  _atom_site_B_iso_or_equiv
  _atom_site_type_symbol
  La1      1.0000 0.76214  0.14013  0.72981  Biso   1.000  La
  La2      1.0000 0.37799  0.23786  0.72981  Biso   1.000  La
  La3      1.0000 0.85987  0.62201  0.72981  Biso   1.000  La
  La4      1.0000 0.23786  0.85987  0.22981  Biso   1.000  La
  La5      1.0000 0.62201  0.76214  0.22981  Biso   1.000  La
  La6      1.0000 0.14013  0.37799  0.22981  Biso   1.000  La
  V1       1.0000 0.00000  0.00000  0.52168  Biso   1.000  V 
  V2       1.0000 0.00000  0.00000  0.02168  Biso   1.000  V 
  Al1      1.0000 0.66667  0.33333  0.13822  Biso   1.000  Al
  Al2      1.0000 0.33333  0.66667  0.63822  Biso   1.000  Al
  S1       1.0000 0.85641  0.08545  0.26709  Biso   1.000  S 
  S2       1.0000 0.22905  0.14359  0.26709  Biso   1.000  S 
  S3       1.0000 0.91455  0.77095  0.26709  Biso   1.000  S 
  S4       1.0000 0.14359  0.91455  0.76709  Biso   1.000  S 
  S5       1.0000 0.77095  0.85641  0.76709  Biso   1.000  S 
  S6       1.0000 0.08545  0.22905  0.76709  Biso   1.000  S 
  S7       1.0000 0.89650  0.41280  0.00063  Biso   1.000  S 
  S8       1.0000 0.51630  0.10350  0.00063  Biso   1.000  S 
  S9       1.0000 0.58720  0.48370  0.00063  Biso   1.000  S 
  S10      1.0000 0.10350  0.58720  0.50063  Biso   1.000  S 
  S11      1.0000 0.48370  0.89650  0.50063  Biso   1.000  S 
  S12      1.0000 0.41280  0.51630  0.50063  Biso   1.000  S 
  S13      1.0000 0.66667  0.33333  0.52949  Biso   1.000  S 
  S14      1.0000 0.33333  0.66667  0.02949  Biso   1.000  S 
