data_image0
_cell_length_a       9.68854
_cell_length_b       9.68854
_cell_length_c       6.15523
_cell_angle_alpha    90
_cell_angle_beta     90
_cell_angle_gamma    120

_symmetry_space_group_name_H-M    "P 1"
_symmetry_int_tables_number       1

loop_
  _symmetry_equiv_pos_as_xyz
  'x, y, z'

loop_
  _atom_site_label
  _atom_site_occupancy
  _atom_site_fract_x
  _atom_site_fract_y
  _atom_site_fract_z
  _atom_site_thermal_displace_type
  _atom_site_B_iso_or_equiv
  _atom_site_type_symbol
  Y1       1.0000 0.77271  0.15276  0.73535  Biso   1.000  Y 
  Y2       1.0000 0.38005  0.22729  0.73535  Biso   1.000  Y 
  Y3       1.0000 0.84724  0.61995  0.73535  Biso   1.000  Y 
  Y4       1.0000 0.22729  0.84724  0.23535  Biso   1.000  Y 
  Y5       1.0000 0.61995  0.77271  0.23535  Biso   1.000  Y 
  Y6       1.0000 0.15276  0.38005  0.23535  Biso   1.000  Y 
  Mn1      1.0000 0.00000  0.00000  0.55307  Biso   1.000  Mn
  Mn2      1.0000 0.00000  0.00000  0.05307  Biso   1.000  Mn
  Al1      1.0000 0.66667  0.33333  0.15567  Biso   1.000  Al
  Al2      1.0000 0.33333  0.66667  0.65567  Biso   1.000  Al
  S1       1.0000 0.85942  0.10633  0.31470  Biso   1.000  S 
  S2       1.0000 0.24690  0.14058  0.31470  Biso   1.000  S 
  S3       1.0000 0.89367  0.75310  0.31470  Biso   1.000  S 
  S4       1.0000 0.14058  0.89367  0.81470  Biso   1.000  S 
  S5       1.0000 0.75310  0.85942  0.81470  Biso   1.000  S 
  S6       1.0000 0.10633  0.24690  0.81470  Biso   1.000  S 
  S7       1.0000 0.90676  0.42653  0.99424  Biso   1.000  S 
  S8       1.0000 0.51977  0.09324  0.99424  Biso   1.000  S 
  S9       1.0000 0.57347  0.48023  0.99424  Biso   1.000  S 
  S10      1.0000 0.09324  0.57347  0.49424  Biso   1.000  S 
  S11      1.0000 0.48023  0.90676  0.49424  Biso   1.000  S 
  S12      1.0000 0.42653  0.51977  0.49424  Biso   1.000  S 
  S13      1.0000 0.66667  0.33333  0.52238  Biso   1.000  S 
  S14      1.0000 0.33333  0.66667  0.02238  Biso   1.000  S 
