data_image0
_cell_length_a       5.43695
_cell_length_b       8.31872
_cell_length_c       12.9388
_cell_angle_alpha    90
_cell_angle_beta     90
_cell_angle_gamma    90

_symmetry_space_group_name_H-M    "P 1"
_symmetry_int_tables_number       1

loop_
  _symmetry_equiv_pos_as_xyz
  'x, y, z'

loop_
  _atom_site_label
  _atom_site_occupancy
  _atom_site_fract_x
  _atom_site_fract_y
  _atom_site_fract_z
  _atom_site_thermal_displace_type
  _atom_site_B_iso_or_equiv
  _atom_site_type_symbol
  Mo1      1.0000 0.75000  0.04495  0.85499  Biso   1.000  Mo
  Mo2      1.0000 0.75000  0.45505  0.35499  Biso   1.000  Mo
  Mo3      1.0000 0.25000  0.95505  0.14501  Biso   1.000  Mo
  Mo4      1.0000 0.25000  0.54495  0.64501  Biso   1.000  Mo
  V1       1.0000 0.25000  0.43455  0.98492  Biso   1.000  V 
  V2       1.0000 0.25000  0.06545  0.48492  Biso   1.000  V 
  V3       1.0000 0.75000  0.56545  0.01508  Biso   1.000  V 
  V4       1.0000 0.75000  0.93455  0.51508  Biso   1.000  V 
  Al1      1.0000 0.75000  0.23444  0.11167  Biso   1.000  Al
  Al2      1.0000 0.75000  0.26556  0.61167  Biso   1.000  Al
  Al3      1.0000 0.25000  0.76556  0.88833  Biso   1.000  Al
  Al4      1.0000 0.25000  0.73444  0.38833  Biso   1.000  Al
  O1       1.0000 0.49030  0.91461  0.85234  Biso   1.000  O 
  O2       1.0000 0.00970  0.58539  0.35234  Biso   1.000  O 
  O3       1.0000 0.99030  0.08539  0.14766  Biso   1.000  O 
  O4       1.0000 0.50970  0.41461  0.64766  Biso   1.000  O 
  O5       1.0000 0.50970  0.08539  0.14766  Biso   1.000  O 
  O6       1.0000 0.99030  0.41461  0.64766  Biso   1.000  O 
  O7       1.0000 0.00970  0.91461  0.85234  Biso   1.000  O 
  O8       1.0000 0.49030  0.58539  0.35234  Biso   1.000  O 
  O9       1.0000 0.75000  0.15802  0.97227  Biso   1.000  O 
  O10      1.0000 0.75000  0.34198  0.47227  Biso   1.000  O 
  O11      1.0000 0.25000  0.84198  0.02773  Biso   1.000  O 
  O12      1.0000 0.25000  0.65802  0.52773  Biso   1.000  O 
  O13      1.0000 0.75000  0.17642  0.74552  Biso   1.000  O 
  O14      1.0000 0.75000  0.32358  0.24552  Biso   1.000  O 
  O15      1.0000 0.25000  0.82358  0.25448  Biso   1.000  O 
  O16      1.0000 0.25000  0.67642  0.75448  Biso   1.000  O 
  O17      1.0000 0.52092  0.40053  0.06936  Biso   1.000  O 
  O18      1.0000 0.97908  0.09947  0.56936  Biso   1.000  O 
  O19      1.0000 0.02092  0.59947  0.93064  Biso   1.000  O 
  O20      1.0000 0.47908  0.90053  0.43064  Biso   1.000  O 
  O21      1.0000 0.47908  0.59947  0.93064  Biso   1.000  O 
  O22      1.0000 0.02092  0.90053  0.43064  Biso   1.000  O 
  O23      1.0000 0.97908  0.40053  0.06936  Biso   1.000  O 
  O24      1.0000 0.52092  0.09947  0.56936  Biso   1.000  O 
  O25      1.0000 0.25000  0.28866  0.90335  Biso   1.000  O 
  O26      1.0000 0.25000  0.21134  0.40335  Biso   1.000  O 
  O27      1.0000 0.75000  0.71134  0.09665  Biso   1.000  O 
  O28      1.0000 0.75000  0.78866  0.59665  Biso   1.000  O 
