data_image0
_cell_length_a       6.76866
_cell_length_b       6.76866
_cell_length_c       6.76866
_cell_angle_alpha    105.175
_cell_angle_beta     105.175
_cell_angle_gamma    118.455

_symmetry_space_group_name_H-M    "P 1"
_symmetry_int_tables_number       1

loop_
  _symmetry_equiv_pos_as_xyz
  'x, y, z'

loop_
  _atom_site_label
  _atom_site_occupancy
  _atom_site_fract_x
  _atom_site_fract_y
  _atom_site_fract_z
  _atom_site_thermal_displace_type
  _atom_site_B_iso_or_equiv
  _atom_site_type_symbol
  Na1      1.0000 0.25000  0.25000  0.00000  Biso   1.000  Na
  Na2      1.0000 0.75000  0.75000  0.00000  Biso   1.000  Na
  Al1      1.0000 0.25000  0.75000  0.50000  Biso   1.000  Al
  Al2      1.0000 0.75000  0.25000  0.50000  Biso   1.000  Al
  Te1      1.0000 0.67496  0.17496  0.84992  Biso   1.000  Te
  Te2      1.0000 0.32504  0.82504  0.15008  Biso   1.000  Te
  Te3      1.0000 0.17496  0.32504  0.50000  Biso   1.000  Te
  Te4      1.0000 0.82504  0.67496  0.50000  Biso   1.000  Te
