data_image0
_cell_length_a       7.81531
_cell_length_b       8.07769
_cell_length_c       16.2431
_cell_angle_alpha    60.5021
_cell_angle_beta     90
_cell_angle_gamma    90

_symmetry_space_group_name_H-M    "P 1"
_symmetry_int_tables_number       1

loop_
  _symmetry_equiv_pos_as_xyz
  'x, y, z'

loop_
  _atom_site_label
  _atom_site_occupancy
  _atom_site_fract_x
  _atom_site_fract_y
  _atom_site_fract_z
  _atom_site_thermal_displace_type
  _atom_site_B_iso_or_equiv
  _atom_site_type_symbol
  Na1      1.0000 0.98042  0.05312  0.72148  Biso   1.000  Na
  Na2      1.0000 0.51958  0.05312  0.22148  Biso   1.000  Na
  Na3      1.0000 0.01958  0.94688  0.27852  Biso   1.000  Na
  Na4      1.0000 0.48042  0.94688  0.77852  Biso   1.000  Na
  Na5      1.0000 0.99832  0.27685  0.89600  Biso   1.000  Na
  Na6      1.0000 0.50168  0.27685  0.39600  Biso   1.000  Na
  Na7      1.0000 0.00168  0.72315  0.10400  Biso   1.000  Na
  Na8      1.0000 0.49832  0.72315  0.60400  Biso   1.000  Na
  Na9      1.0000 0.99979  0.68319  0.60113  Biso   1.000  Na
  Na10     1.0000 0.50021  0.68319  0.10113  Biso   1.000  Na
  Na11     1.0000 0.00021  0.31681  0.39887  Biso   1.000  Na
  Na12     1.0000 0.49979  0.31681  0.89887  Biso   1.000  Na
  Al1      1.0000 0.36002  0.33432  0.58220  Biso   1.000  Al
  Al2      1.0000 0.13998  0.33432  0.08220  Biso   1.000  Al
  Al3      1.0000 0.63998  0.66568  0.41780  Biso   1.000  Al
  Al4      1.0000 0.86002  0.66568  0.91780  Biso   1.000  Al
  Te1      1.0000 0.20417  0.65836  0.92534  Biso   1.000  Te
  Te2      1.0000 0.29583  0.65836  0.42534  Biso   1.000  Te
  Te3      1.0000 0.79583  0.34164  0.07466  Biso   1.000  Te
  Te4      1.0000 0.70417  0.34164  0.57466  Biso   1.000  Te
  Te5      1.0000 0.75645  0.65492  0.76832  Biso   1.000  Te
  Te6      1.0000 0.74355  0.65492  0.26832  Biso   1.000  Te
  Te7      1.0000 0.24355  0.34508  0.23168  Biso   1.000  Te
  Te8      1.0000 0.25645  0.34508  0.73168  Biso   1.000  Te
  Te9      1.0000 0.24048  0.04228  0.57411  Biso   1.000  Te
  Te10     1.0000 0.25952  0.04228  0.07411  Biso   1.000  Te
  Te11     1.0000 0.75952  0.95772  0.42589  Biso   1.000  Te
  Te12     1.0000 0.74048  0.95772  0.92589  Biso   1.000  Te
