data_image0
_cell_length_a       7.59738
_cell_length_b       7.59738
_cell_length_c       14.1183
_cell_angle_alpha    82.2064
_cell_angle_beta     82.2064
_cell_angle_gamma    90.011

_symmetry_space_group_name_H-M    "P 1"
_symmetry_int_tables_number       1

loop_
  _symmetry_equiv_pos_as_xyz
  'x, y, z'

loop_
  _atom_site_label
  _atom_site_occupancy
  _atom_site_fract_x
  _atom_site_fract_y
  _atom_site_fract_z
  _atom_site_thermal_displace_type
  _atom_site_B_iso_or_equiv
  _atom_site_type_symbol
  Na1      1.0000 0.15376  0.77882  0.37958  Biso   1.000  Na
  Na2      1.0000 0.22118  0.84624  0.12042  Biso   1.000  Na
  Na3      1.0000 0.84624  0.22118  0.62042  Biso   1.000  Na
  Na4      1.0000 0.77882  0.15376  0.87958  Biso   1.000  Na
  Na5      1.0000 0.21939  0.34204  0.12879  Biso   1.000  Na
  Na6      1.0000 0.65796  0.78061  0.37121  Biso   1.000  Na
  Na7      1.0000 0.78061  0.65796  0.87121  Biso   1.000  Na
  Na8      1.0000 0.34204  0.21939  0.62879  Biso   1.000  Na
  Al1      1.0000 0.90958  0.28709  0.34966  Biso   1.000  Al
  Al2      1.0000 0.71291  0.09042  0.15034  Biso   1.000  Al
  Al3      1.0000 0.09042  0.71291  0.65034  Biso   1.000  Al
  Al4      1.0000 0.28709  0.90958  0.84966  Biso   1.000  Al
  Al5      1.0000 0.71303  0.58398  0.15018  Biso   1.000  Al
  Al6      1.0000 0.41602  0.28697  0.34982  Biso   1.000  Al
  Al7      1.0000 0.28697  0.41602  0.84982  Biso   1.000  Al
  Al8      1.0000 0.58398  0.71303  0.65018  Biso   1.000  Al
  Se1      1.0000 0.94707  0.05293  0.25000  Biso   1.000  Se
  Se2      1.0000 0.05293  0.94707  0.75000  Biso   1.000  Se
  Se3      1.0000 0.42894  0.57106  0.25000  Biso   1.000  Se
  Se4      1.0000 0.57106  0.42894  0.75000  Biso   1.000  Se
  Se5      1.0000 0.13682  0.26197  0.45320  Biso   1.000  Se
  Se6      1.0000 0.73803  0.86318  0.04680  Biso   1.000  Se
  Se7      1.0000 0.86318  0.73803  0.54680  Biso   1.000  Se
  Se8      1.0000 0.26197  0.13682  0.95320  Biso   1.000  Se
  Se9      1.0000 0.94715  0.57122  0.24968  Biso   1.000  Se
  Se10     1.0000 0.42878  0.05285  0.25032  Biso   1.000  Se
  Se11     1.0000 0.05285  0.42878  0.75032  Biso   1.000  Se
  Se12     1.0000 0.57122  0.94715  0.74968  Biso   1.000  Se
  Se13     1.0000 0.73956  0.36426  0.04330  Biso   1.000  Se
  Se14     1.0000 0.63574  0.26044  0.45670  Biso   1.000  Se
  Se15     1.0000 0.26044  0.63574  0.95670  Biso   1.000  Se
  Se16     1.0000 0.36426  0.73956  0.54330  Biso   1.000  Se
