data_image0
_cell_length_a       3.11164
_cell_length_b       3.11153
_cell_length_c       4.98043
_cell_angle_alpha    90.0025
_cell_angle_beta     89.9988
_cell_angle_gamma    119.999

_symmetry_space_group_name_H-M    "P 1"
_symmetry_int_tables_number       1

loop_
  _symmetry_equiv_pos_as_xyz
  'x, y, z'

loop_
  _atom_site_label
  _atom_site_occupancy
  _atom_site_fract_x
  _atom_site_fract_y
  _atom_site_fract_z
  _atom_site_thermal_displace_type
  _atom_site_B_iso_or_equiv
  _atom_site_type_symbol
  Al1      1.0000 0.33332  0.66667  0.42291  Biso   1.000  Al
  Al2      1.0000 0.66667  0.33335  0.92291  Biso   1.000  Al
  N1       1.0000 0.66667  0.33333  0.30489  Biso   1.000  N 
  N2       1.0000 0.33332  0.66665  0.80489  Biso   1.000  N 
