data_image0
_cell_length_a       5.40808
_cell_length_b       5.40808
_cell_length_c       10.8483
_cell_angle_alpha    90
_cell_angle_beta     90
_cell_angle_gamma    120

_symmetry_space_group_name_H-M    "P 1"
_symmetry_int_tables_number       1

loop_
  _symmetry_equiv_pos_as_xyz
  'x, y, z'

loop_
  _atom_site_label
  _atom_site_occupancy
  _atom_site_fract_x
  _atom_site_fract_y
  _atom_site_fract_z
  _atom_site_thermal_displace_type
  _atom_site_B_iso_or_equiv
  _atom_site_type_symbol
  Al1      1.0000 0.50000  1.00000  0.50000  Biso   1.000  Al
  Al2      1.0000 0.50000  0.50000  0.16667  Biso   1.000  Al
  Al3      1.0000 0.00000  0.50000  0.83333  Biso   1.000  Al
  P1       1.0000 0.50000  1.00000  0.00000  Biso   1.000  P 
  P2       1.0000 0.50000  0.50000  0.66667  Biso   1.000  P 
  P3       1.0000 0.00000  0.50000  0.33333  Biso   1.000  P 
  O1       1.0000 0.56539  0.26714  0.26703  Biso   1.000  O 
  O2       1.0000 0.56539  0.29825  0.39964  Biso   1.000  O 
  O3       1.0000 0.70175  0.26714  0.73297  Biso   1.000  O 
  O4       1.0000 0.73286  0.43461  0.06631  Biso   1.000  O 
  O5       1.0000 0.43461  0.70175  0.39964  Biso   1.000  O 
  O6       1.0000 0.29825  0.73286  0.73297  Biso   1.000  O 
  O7       1.0000 0.26714  0.56539  0.06631  Biso   1.000  O 
  O8       1.0000 0.29825  0.56539  0.93369  Biso   1.000  O 
  O9       1.0000 0.26714  0.70175  0.60036  Biso   1.000  O 
  O10      1.0000 0.43461  0.73286  0.26703  Biso   1.000  O 
  O11      1.0000 0.70175  0.43461  0.93369  Biso   1.000  O 
  O12      1.0000 0.73286  0.29825  0.60036  Biso   1.000  O 
