data_image0
_cell_length_a       6.35952
_cell_length_b       6.35952
_cell_length_c       6.35952
_cell_angle_alpha    126.827
_cell_angle_beta     123.823
_cell_angle_gamma    81.0233

_symmetry_space_group_name_H-M    "P 1"
_symmetry_int_tables_number       1

loop_
  _symmetry_equiv_pos_as_xyz
  'x, y, z'

loop_
  _atom_site_label
  _atom_site_occupancy
  _atom_site_fract_x
  _atom_site_fract_y
  _atom_site_fract_z
  _atom_site_thermal_displace_type
  _atom_site_B_iso_or_equiv
  _atom_site_type_symbol
  P1       1.0000 0.00000  0.00000  0.00000  Biso   1.000  P 
  Al1      1.0000 0.00000  0.50000  0.50000  Biso   1.000  Al
  S1       1.0000 0.07463  0.65806  0.97062  Biso   1.000  S 
  S2       1.0000 0.68744  0.10401  0.02938  Biso   1.000  S 
  S3       1.0000 0.92537  0.89599  0.58343  Biso   1.000  S 
  S4       1.0000 0.31256  0.34194  0.41657  Biso   1.000  S 
