data_image0
_cell_length_a       5.89738
_cell_length_b       6.13208
_cell_length_c       9.89504
_cell_angle_alpha    90
_cell_angle_beta     90
_cell_angle_gamma    90

_symmetry_space_group_name_H-M    "P 1"
_symmetry_int_tables_number       1

loop_
  _symmetry_equiv_pos_as_xyz
  'x, y, z'

loop_
  _atom_site_label
  _atom_site_occupancy
  _atom_site_fract_x
  _atom_site_fract_y
  _atom_site_fract_z
  _atom_site_thermal_displace_type
  _atom_site_B_iso_or_equiv
  _atom_site_type_symbol
  Al1      1.0000 0.50000  0.50000  0.00000  Biso   1.000  Al
  Al2      1.0000 0.00000  0.00000  0.50000  Biso   1.000  Al
  Al3      1.0000 0.50000  0.50000  0.50000  Biso   1.000  Al
  Al4      1.0000 0.00000  0.00000  0.00000  Biso   1.000  Al
  Si1      1.0000 0.99971  0.43746  0.75000  Biso   1.000  Si
  Si2      1.0000 0.49971  0.06254  0.75000  Biso   1.000  Si
  Si3      1.0000 0.00029  0.56254  0.25000  Biso   1.000  Si
  Si4      1.0000 0.50029  0.93746  0.25000  Biso   1.000  Si
  P1       1.0000 0.88765  0.08577  0.75000  Biso   1.000  P 
  P2       1.0000 0.38765  0.41423  0.75000  Biso   1.000  P 
  P3       1.0000 0.11235  0.91423  0.25000  Biso   1.000  P 
  P4       1.0000 0.61235  0.58577  0.25000  Biso   1.000  P 
  P5       1.0000 0.88940  0.60796  0.94197  Biso   1.000  P 
  P6       1.0000 0.38940  0.89204  0.55803  Biso   1.000  P 
  P7       1.0000 0.11060  0.39204  0.44197  Biso   1.000  P 
  P8       1.0000 0.61060  0.10796  0.05803  Biso   1.000  P 
  P9       1.0000 0.11060  0.39204  0.05803  Biso   1.000  P 
  P10      1.0000 0.61060  0.10796  0.44197  Biso   1.000  P 
  P11      1.0000 0.88940  0.60796  0.55803  Biso   1.000  P 
  P12      1.0000 0.38940  0.89204  0.94197  Biso   1.000  P 
