data_image0
_cell_length_a       5.69633
_cell_length_b       5.70443
_cell_length_c       10.6019
_cell_angle_alpha    90
_cell_angle_beta     90
_cell_angle_gamma    90

_symmetry_space_group_name_H-M    "P 1"
_symmetry_int_tables_number       1

loop_
  _symmetry_equiv_pos_as_xyz
  'x, y, z'

loop_
  _atom_site_label
  _atom_site_occupancy
  _atom_site_fract_x
  _atom_site_fract_y
  _atom_site_fract_z
  _atom_site_thermal_displace_type
  _atom_site_B_iso_or_equiv
  _atom_site_type_symbol
  Al1      1.0000 0.00000  0.00000  0.00000  Biso   1.000  Al
  Al2      1.0000 0.50000  0.00000  0.50000  Biso   1.000  Al
  P1       1.0000 0.00000  0.50000  0.00000  Biso   1.000  P 
  P2       1.0000 0.00000  0.00000  0.50000  Biso   1.000  P 
  S1       1.0000 0.79810  0.27636  0.89139  Biso   1.000  S 
  S2       1.0000 0.20190  0.72364  0.89139  Biso   1.000  S 
  S3       1.0000 0.79810  0.72364  0.10861  Biso   1.000  S 
  S4       1.0000 0.20190  0.27636  0.10861  Biso   1.000  S 
  S5       1.0000 0.22391  0.79978  0.39050  Biso   1.000  S 
  S6       1.0000 0.77609  0.20022  0.39050  Biso   1.000  S 
  S7       1.0000 0.22391  0.20022  0.60950  Biso   1.000  S 
  S8       1.0000 0.77609  0.79978  0.60950  Biso   1.000  S 
