data_image0
_cell_length_a       5.72637
_cell_length_b       5.72637
_cell_length_c       9.73688
_cell_angle_alpha    90
_cell_angle_beta     90
_cell_angle_gamma    90

_symmetry_space_group_name_H-M    "P 1"
_symmetry_int_tables_number       1

loop_
  _symmetry_equiv_pos_as_xyz
  'x, y, z'

loop_
  _atom_site_label
  _atom_site_occupancy
  _atom_site_fract_x
  _atom_site_fract_y
  _atom_site_fract_z
  _atom_site_thermal_displace_type
  _atom_site_B_iso_or_equiv
  _atom_site_type_symbol
  P1       1.0000 0.00000  0.50000  0.75000  Biso   1.000  P 
  P2       1.0000 0.50000  0.00000  0.25000  Biso   1.000  P 
  S1       1.0000 0.22386  0.30146  0.63070  Biso   1.000  S 
  S2       1.0000 0.77614  0.69854  0.63070  Biso   1.000  S 
  S3       1.0000 0.22386  0.69854  0.86930  Biso   1.000  S 
  S4       1.0000 0.77614  0.30146  0.86930  Biso   1.000  S 
  S5       1.0000 0.30146  0.77614  0.36930  Biso   1.000  S 
  S6       1.0000 0.69854  0.22386  0.36930  Biso   1.000  S 
  S7       1.0000 0.69854  0.77614  0.13070  Biso   1.000  S 
  S8       1.0000 0.30146  0.22386  0.13070  Biso   1.000  S 
  Al1      1.0000 0.50000  0.50000  0.75000  Biso   1.000  Al
  Al2      1.0000 0.50000  0.50000  0.25000  Biso   1.000  Al
