data_image0
_cell_length_a       6.35196
_cell_length_b       10.891
_cell_length_c       12.56
_cell_angle_alpha    79.1312
_cell_angle_beta     90
_cell_angle_gamma    90

_symmetry_space_group_name_H-M    "P 1"
_symmetry_int_tables_number       1

loop_
  _symmetry_equiv_pos_as_xyz
  'x, y, z'

loop_
  _atom_site_label
  _atom_site_occupancy
  _atom_site_fract_x
  _atom_site_fract_y
  _atom_site_fract_z
  _atom_site_thermal_displace_type
  _atom_site_B_iso_or_equiv
  _atom_site_type_symbol
  Rb1      1.0000 0.25000  0.08612  0.63115  Biso   1.000  Rb
  Rb2      1.0000 0.75000  0.91388  0.36885  Biso   1.000  Rb
  Rb3      1.0000 0.25000  0.12326  0.32324  Biso   1.000  Rb
  Rb4      1.0000 0.75000  0.87674  0.67676  Biso   1.000  Rb
  Rb5      1.0000 0.25000  0.13500  0.97951  Biso   1.000  Rb
  Rb6      1.0000 0.75000  0.86500  0.02049  Biso   1.000  Rb
  Rb7      1.0000 0.25000  0.44064  0.45719  Biso   1.000  Rb
  Rb8      1.0000 0.75000  0.55936  0.54281  Biso   1.000  Rb
  Rb9      1.0000 0.25000  0.45821  0.07859  Biso   1.000  Rb
  Rb10     1.0000 0.75000  0.54179  0.92141  Biso   1.000  Rb
  Rb11     1.0000 0.25000  0.74205  0.22305  Biso   1.000  Rb
  Rb12     1.0000 0.75000  0.25795  0.77695  Biso   1.000  Rb
  Al1      1.0000 0.25000  0.67893  0.72048  Biso   1.000  Al
  Al2      1.0000 0.75000  0.32107  0.27952  Biso   1.000  Al
  Sb1      1.0000 0.25000  0.43220  0.77437  Biso   1.000  Sb
  Sb2      1.0000 0.75000  0.56780  0.22563  Biso   1.000  Sb
  Sb3      1.0000 0.25000  0.78610  0.51180  Biso   1.000  Sb
  Sb4      1.0000 0.75000  0.21390  0.48820  Biso   1.000  Sb
  Sb5      1.0000 0.25000  0.82176  0.87506  Biso   1.000  Sb
  Sb6      1.0000 0.75000  0.17824  0.12494  Biso   1.000  Sb
