data_image0
_cell_length_a       10.8464
_cell_length_b       10.8464
_cell_length_c       13.6644
_cell_angle_alpha    90
_cell_angle_beta     90
_cell_angle_gamma    37.3259

_symmetry_space_group_name_H-M    "P 1"
_symmetry_int_tables_number       1

loop_
  _symmetry_equiv_pos_as_xyz
  'x, y, z'

loop_
  _atom_site_label
  _atom_site_occupancy
  _atom_site_fract_x
  _atom_site_fract_y
  _atom_site_fract_z
  _atom_site_thermal_displace_type
  _atom_site_B_iso_or_equiv
  _atom_site_type_symbol
  Al1      1.0000 0.58601  0.58601  0.50000  Biso   1.000  Al
  Al2      1.0000 0.08601  0.08601  0.00000  Biso   1.000  Al
  Al3      1.0000 0.41399  0.41399  0.50000  Biso   1.000  Al
  Al4      1.0000 0.91399  0.91399  0.00000  Biso   1.000  Al
  Sr1      1.0000 0.30979  0.69021  0.14681  Biso   1.000  Sr
  Sr2      1.0000 0.69021  0.30979  0.85319  Biso   1.000  Sr
  Sr3      1.0000 0.19021  0.80979  0.64681  Biso   1.000  Sr
  Sr4      1.0000 0.80979  0.19021  0.35319  Biso   1.000  Sr
  Sr5      1.0000 0.97928  0.37279  0.62926  Biso   1.000  Sr
  Sr6      1.0000 0.37279  0.97928  0.37074  Biso   1.000  Sr
  Sr7      1.0000 0.87279  0.47928  0.12926  Biso   1.000  Sr
  Sr8      1.0000 0.47928  0.87279  0.87074  Biso   1.000  Sr
  Sr9      1.0000 0.02072  0.62721  0.37074  Biso   1.000  Sr
  Sr10     1.0000 0.62721  0.02072  0.62926  Biso   1.000  Sr
  Sr11     1.0000 0.12721  0.52072  0.87074  Biso   1.000  Sr
  Sr12     1.0000 0.52072  0.12721  0.12926  Biso   1.000  Sr
  Sb1      1.0000 0.78672  0.21328  0.10783  Biso   1.000  Sb
  Sb2      1.0000 0.21328  0.78672  0.89217  Biso   1.000  Sb
  Sb3      1.0000 0.71328  0.28672  0.60783  Biso   1.000  Sb
  Sb4      1.0000 0.28672  0.71328  0.39217  Biso   1.000  Sb
  Sb5      1.0000 0.44938  0.87173  0.62288  Biso   1.000  Sb
  Sb6      1.0000 0.87173  0.44938  0.37712  Biso   1.000  Sb
  Sb7      1.0000 0.37173  0.94938  0.12288  Biso   1.000  Sb
  Sb8      1.0000 0.94938  0.37173  0.87712  Biso   1.000  Sb
  Sb9      1.0000 0.55062  0.12827  0.37712  Biso   1.000  Sb
  Sb10     1.0000 0.12827  0.55062  0.62288  Biso   1.000  Sb
  Sb11     1.0000 0.62827  0.05062  0.87712  Biso   1.000  Sb
  Sb12     1.0000 0.05062  0.62827  0.12288  Biso   1.000  Sb
