data_image0
_cell_length_a       6.91418
_cell_length_b       6.91418
_cell_length_c       7.62051
_cell_angle_alpha    90
_cell_angle_beta     90
_cell_angle_gamma    120

_symmetry_space_group_name_H-M    "P 1"
_symmetry_int_tables_number       1

loop_
  _symmetry_equiv_pos_as_xyz
  'x, y, z'

loop_
  _atom_site_label
  _atom_site_occupancy
  _atom_site_fract_x
  _atom_site_fract_y
  _atom_site_fract_z
  _atom_site_thermal_displace_type
  _atom_site_B_iso_or_equiv
  _atom_site_type_symbol
  Te1      1.0000 0.35493  0.35516  0.73414  Biso   1.000  Te
  Te2      1.0000 0.00023  0.64507  0.73414  Biso   1.000  Te
  Te3      1.0000 0.64484  0.99977  0.73414  Biso   1.000  Te
  Te4      1.0000 0.64507  0.64484  0.26586  Biso   1.000  Te
  Te5      1.0000 0.99977  0.35493  0.26586  Biso   1.000  Te
  Te6      1.0000 0.35516  0.00023  0.26586  Biso   1.000  Te
  Al1      1.0000 0.33333  0.66667  0.49956  Biso   1.000  Al
  Al2      1.0000 0.66667  0.33333  0.50044  Biso   1.000  Al
  Si1      1.0000 0.00000  0.00000  0.65070  Biso   1.000  Si
  Si2      1.0000 0.00000  0.00000  0.34930  Biso   1.000  Si
