data_image0
_cell_length_a       7.54377
_cell_length_b       11.9243
_cell_length_c       11.9736
_cell_angle_alpha    90
_cell_angle_beta     90
_cell_angle_gamma    90

_symmetry_space_group_name_H-M    "P 1"
_symmetry_int_tables_number       1

loop_
  _symmetry_equiv_pos_as_xyz
  'x, y, z'

loop_
  _atom_site_label
  _atom_site_occupancy
  _atom_site_fract_x
  _atom_site_fract_y
  _atom_site_fract_z
  _atom_site_thermal_displace_type
  _atom_site_B_iso_or_equiv
  _atom_site_type_symbol
  Ba1      1.0000 0.58187  0.07668  0.36167  Biso   1.000  Ba
  Ba2      1.0000 0.08187  0.42332  0.13833  Biso   1.000  Ba
  Ba3      1.0000 0.41813  0.57668  0.63833  Biso   1.000  Ba
  Ba4      1.0000 0.91813  0.92332  0.86167  Biso   1.000  Ba
  Ba5      1.0000 0.41813  0.92332  0.63833  Biso   1.000  Ba
  Ba6      1.0000 0.91813  0.57668  0.86167  Biso   1.000  Ba
  Ba7      1.0000 0.58187  0.42332  0.36167  Biso   1.000  Ba
  Ba8      1.0000 0.08187  0.07668  0.13833  Biso   1.000  Ba
  Ba9      1.0000 0.59363  0.25000  0.73917  Biso   1.000  Ba
  Ba10     1.0000 0.09363  0.25000  0.76083  Biso   1.000  Ba
  Ba11     1.0000 0.40637  0.75000  0.26083  Biso   1.000  Ba
  Ba12     1.0000 0.90637  0.75000  0.23917  Biso   1.000  Ba
  Al1      1.0000 0.55962  0.12564  0.03741  Biso   1.000  Al
  Al2      1.0000 0.05962  0.37436  0.46259  Biso   1.000  Al
  Al3      1.0000 0.44038  0.62564  0.96259  Biso   1.000  Al
  Al4      1.0000 0.94038  0.87436  0.53741  Biso   1.000  Al
  Al5      1.0000 0.44038  0.87436  0.96259  Biso   1.000  Al
  Al6      1.0000 0.94038  0.62564  0.53741  Biso   1.000  Al
  Al7      1.0000 0.55962  0.37436  0.03741  Biso   1.000  Al
  Al8      1.0000 0.05962  0.12564  0.46259  Biso   1.000  Al
  As1      1.0000 0.65890  0.55931  0.11309  Biso   1.000  As
  As2      1.0000 0.15890  0.94069  0.38691  Biso   1.000  As
  As3      1.0000 0.34110  0.05931  0.88691  Biso   1.000  As
  As4      1.0000 0.84110  0.44069  0.61309  Biso   1.000  As
  As5      1.0000 0.34110  0.44069  0.88691  Biso   1.000  As
  As6      1.0000 0.84110  0.05931  0.61309  Biso   1.000  As
  As7      1.0000 0.65890  0.94069  0.11309  Biso   1.000  As
  As8      1.0000 0.15890  0.55931  0.38691  Biso   1.000  As
  As9      1.0000 0.81495  0.25000  0.97251  Biso   1.000  As
  As10     1.0000 0.31495  0.25000  0.52749  Biso   1.000  As
  As11     1.0000 0.18505  0.75000  0.02749  Biso   1.000  As
  As12     1.0000 0.68505  0.75000  0.47251  Biso   1.000  As
  As13     1.0000 0.90790  0.25000  0.32521  Biso   1.000  As
  As14     1.0000 0.40790  0.25000  0.17479  Biso   1.000  As
  As15     1.0000 0.09210  0.75000  0.67479  Biso   1.000  As
  As16     1.0000 0.59210  0.75000  0.82521  Biso   1.000  As
