data_image0
_cell_length_a       6.09262
_cell_length_b       7.73639
_cell_length_c       10.6043
_cell_angle_alpha    69.9775
_cell_angle_beta     90
_cell_angle_gamma    90

_symmetry_space_group_name_H-M    "P 1"
_symmetry_int_tables_number       1

loop_
  _symmetry_equiv_pos_as_xyz
  'x, y, z'

loop_
  _atom_site_label
  _atom_site_occupancy
  _atom_site_fract_x
  _atom_site_fract_y
  _atom_site_fract_z
  _atom_site_thermal_displace_type
  _atom_site_B_iso_or_equiv
  _atom_site_type_symbol
  K1       1.0000 0.75000  0.56843  0.56930  Biso   1.000  K 
  K2       1.0000 0.25000  0.43157  0.43070  Biso   1.000  K 
  K3       1.0000 0.75000  0.48475  0.14861  Biso   1.000  K 
  K4       1.0000 0.25000  0.51525  0.85139  Biso   1.000  K 
  K5       1.0000 0.75000  0.10514  0.91343  Biso   1.000  K 
  K6       1.0000 0.25000  0.89486  0.08657  Biso   1.000  K 
  Al1      1.0000 0.50211  0.03429  0.34781  Biso   1.000  Al
  Al2      1.0000 0.00211  0.96571  0.65219  Biso   1.000  Al
  Al3      1.0000 0.49789  0.96571  0.65219  Biso   1.000  Al
  Al4      1.0000 0.99789  0.03429  0.34781  Biso   1.000  Al
  As1      1.0000 0.75000  0.19214  0.47794  Biso   1.000  As
  As2      1.0000 0.25000  0.80786  0.52206  Biso   1.000  As
  As3      1.0000 0.75000  0.74583  0.80397  Biso   1.000  As
  As4      1.0000 0.25000  0.25417  0.19603  Biso   1.000  As
  As5      1.0000 0.75000  0.86184  0.25462  Biso   1.000  As
  As6      1.0000 0.25000  0.13816  0.74538  Biso   1.000  As
