data_image0
_cell_length_a       8.59764
_cell_length_b       8.59764
_cell_length_c       6.84388
_cell_angle_alpha    89.7798
_cell_angle_beta     89.7798
_cell_angle_gamma    75.5095

_symmetry_space_group_name_H-M    "P 1"
_symmetry_int_tables_number       1

loop_
  _symmetry_equiv_pos_as_xyz
  'x, y, z'

loop_
  _atom_site_label
  _atom_site_occupancy
  _atom_site_fract_x
  _atom_site_fract_y
  _atom_site_fract_z
  _atom_site_thermal_displace_type
  _atom_site_B_iso_or_equiv
  _atom_site_type_symbol
  Sr1      1.0000 0.99322  0.25193  0.96167  Biso   1.000  Sr
  Sr2      1.0000 0.74807  0.00678  0.53833  Biso   1.000  Sr
  Sr3      1.0000 0.00678  0.74807  0.03833  Biso   1.000  Sr
  Sr4      1.0000 0.25193  0.99322  0.46167  Biso   1.000  Sr
  Sr5      1.0000 0.59781  0.40219  0.25000  Biso   1.000  Sr
  Sr6      1.0000 0.40219  0.59781  0.75000  Biso   1.000  Sr
  Al1      1.0000 0.17133  0.41857  0.41931  Biso   1.000  Al
  Al2      1.0000 0.58143  0.82867  0.08069  Biso   1.000  Al
  Al3      1.0000 0.82867  0.58143  0.58069  Biso   1.000  Al
  Al4      1.0000 0.41857  0.17133  0.91931  Biso   1.000  Al
  As1      1.0000 0.94019  0.29044  0.47565  Biso   1.000  As
  As2      1.0000 0.70956  0.05981  0.02435  Biso   1.000  As
  As3      1.0000 0.05981  0.70956  0.52435  Biso   1.000  As
  As4      1.0000 0.29044  0.94019  0.97565  Biso   1.000  As
  As5      1.0000 0.25794  0.42530  0.07301  Biso   1.000  As
  As6      1.0000 0.57470  0.74206  0.42699  Biso   1.000  As
  As7      1.0000 0.74206  0.57470  0.92699  Biso   1.000  As
  As8      1.0000 0.42530  0.25794  0.57301  Biso   1.000  As
