data_image0
_cell_length_a       6.25083
_cell_length_b       10.2986
_cell_length_c       10.1798
_cell_angle_alpha    90
_cell_angle_beta     90
_cell_angle_gamma    90

_symmetry_space_group_name_H-M    "P 1"
_symmetry_int_tables_number       1

loop_
  _symmetry_equiv_pos_as_xyz
  'x, y, z'

loop_
  _atom_site_label
  _atom_site_occupancy
  _atom_site_fract_x
  _atom_site_fract_y
  _atom_site_fract_z
  _atom_site_thermal_displace_type
  _atom_site_B_iso_or_equiv
  _atom_site_type_symbol
  Ba1      1.0000 0.11642  0.34501  0.58614  Biso   1.000  Ba
  Ba2      1.0000 0.38358  0.65499  0.58614  Biso   1.000  Ba
  Ba3      1.0000 0.11642  0.15499  0.91386  Biso   1.000  Ba
  Ba4      1.0000 0.38358  0.84501  0.91386  Biso   1.000  Ba
  Ba5      1.0000 0.88358  0.65499  0.41386  Biso   1.000  Ba
  Ba6      1.0000 0.61642  0.34501  0.41386  Biso   1.000  Ba
  Ba7      1.0000 0.88358  0.84501  0.08614  Biso   1.000  Ba
  Ba8      1.0000 0.61642  0.15499  0.08614  Biso   1.000  Ba
  Ba9      1.0000 0.25000  0.50000  0.90774  Biso   1.000  Ba
  Ba10     1.0000 0.25000  0.00000  0.59226  Biso   1.000  Ba
  Ba11     1.0000 0.75000  0.50000  0.09226  Biso   1.000  Ba
  Ba12     1.0000 0.75000  0.00000  0.40774  Biso   1.000  Ba
  Al1      1.0000 0.67340  0.25000  0.75000  Biso   1.000  Al
  Al2      1.0000 0.82660  0.75000  0.75000  Biso   1.000  Al
  Al3      1.0000 0.32660  0.75000  0.25000  Biso   1.000  Al
  Al4      1.0000 0.17340  0.25000  0.25000  Biso   1.000  Al
  Al5      1.0000 0.75000  0.50000  0.76894  Biso   1.000  Al
  Al6      1.0000 0.75000  0.00000  0.73106  Biso   1.000  Al
  Al7      1.0000 0.25000  0.50000  0.23106  Biso   1.000  Al
  Al8      1.0000 0.25000  0.00000  0.26894  Biso   1.000  Al
  N1       1.0000 0.53298  0.40092  0.67431  Biso   1.000  N 
  N2       1.0000 0.96702  0.59908  0.67431  Biso   1.000  N 
  N3       1.0000 0.53298  0.09908  0.82569  Biso   1.000  N 
  N4       1.0000 0.96702  0.90092  0.82569  Biso   1.000  N 
  N5       1.0000 0.46702  0.59908  0.32569  Biso   1.000  N 
  N6       1.0000 0.03298  0.40092  0.32569  Biso   1.000  N 
  N7       1.0000 0.46702  0.90092  0.17431  Biso   1.000  N 
  N8       1.0000 0.03298  0.09908  0.17431  Biso   1.000  N 
  N9       1.0000 0.85809  0.35436  0.86643  Biso   1.000  N 
  N10      1.0000 0.64191  0.64564  0.86643  Biso   1.000  N 
  N11      1.0000 0.85809  0.14564  0.63357  Biso   1.000  N 
  N12      1.0000 0.64191  0.85436  0.63357  Biso   1.000  N 
  N13      1.0000 0.14191  0.64564  0.13357  Biso   1.000  N 
  N14      1.0000 0.35809  0.35436  0.13357  Biso   1.000  N 
  N15      1.0000 0.14191  0.85436  0.36643  Biso   1.000  N 
  N16      1.0000 0.35809  0.14564  0.36643  Biso   1.000  N 
