data_image0
_cell_length_a       4.27562
_cell_length_b       10.4028
_cell_length_c       11.1281
_cell_angle_alpha    90
_cell_angle_beta     90
_cell_angle_gamma    90

_symmetry_space_group_name_H-M    "P 1"
_symmetry_int_tables_number       1

loop_
  _symmetry_equiv_pos_as_xyz
  'x, y, z'

loop_
  _atom_site_label
  _atom_site_occupancy
  _atom_site_fract_x
  _atom_site_fract_y
  _atom_site_fract_z
  _atom_site_thermal_displace_type
  _atom_site_B_iso_or_equiv
  _atom_site_type_symbol
  Ba1      1.0000 0.25000  0.74862  0.67719  Biso   1.000  Ba
  Ba2      1.0000 0.25000  0.24862  0.82281  Biso   1.000  Ba
  Ba3      1.0000 0.75000  0.25138  0.32281  Biso   1.000  Ba
  Ba4      1.0000 0.75000  0.75138  0.17719  Biso   1.000  Ba
  Al1      1.0000 0.25000  0.54101  0.38419  Biso   1.000  Al
  Al2      1.0000 0.25000  0.04101  0.11581  Biso   1.000  Al
  Al3      1.0000 0.75000  0.45899  0.61581  Biso   1.000  Al
  Al4      1.0000 0.75000  0.95899  0.88419  Biso   1.000  Al
  Al5      1.0000 0.25000  0.60028  0.95420  Biso   1.000  Al
  Al6      1.0000 0.25000  0.10028  0.54580  Biso   1.000  Al
  Al7      1.0000 0.75000  0.39972  0.04580  Biso   1.000  Al
  Al8      1.0000 0.75000  0.89972  0.45420  Biso   1.000  Al
  Ge1      1.0000 0.25000  0.97515  0.34160  Biso   1.000  Ge
  Ge2      1.0000 0.25000  0.47515  0.15840  Biso   1.000  Ge
  Ge3      1.0000 0.75000  0.02485  0.65840  Biso   1.000  Ge
  Ge4      1.0000 0.75000  0.52485  0.84160  Biso   1.000  Ge
  Ge5      1.0000 0.25000  0.85132  0.96074  Biso   1.000  Ge
  Ge6      1.0000 0.25000  0.35132  0.53926  Biso   1.000  Ge
  Ge7      1.0000 0.75000  0.14868  0.03926  Biso   1.000  Ge
  Ge8      1.0000 0.75000  0.64868  0.46074  Biso   1.000  Ge
