data_image0
_cell_length_a       8.57481
_cell_length_b       8.57481
_cell_length_c       8.57481
_cell_angle_alpha    33.4065
_cell_angle_beta     33.4065
_cell_angle_gamma    33.4066

_symmetry_space_group_name_H-M    "P 1"
_symmetry_int_tables_number       1

loop_
  _symmetry_equiv_pos_as_xyz
  'x, y, z'

loop_
  _atom_site_label
  _atom_site_occupancy
  _atom_site_fract_x
  _atom_site_fract_y
  _atom_site_fract_z
  _atom_site_thermal_displace_type
  _atom_site_B_iso_or_equiv
  _atom_site_type_symbol
  Sr1      1.0000 0.00000  0.00000  0.00000  Biso   1.000  Sr
  Al1      1.0000 0.43050  0.43050  0.43050  Biso   1.000  Al
  Al2      1.0000 0.56950  0.56950  0.56950  Biso   1.000  Al
  B1       1.0000 0.26476  0.26476  0.26476  Biso   1.000  B 
  B2       1.0000 0.73524  0.73524  0.73524  Biso   1.000  B 
  O1       1.0000 0.50000  0.50000  0.50000  Biso   1.000  O 
  O2       1.0000 0.67728  0.48478  0.03618  Biso   1.000  O 
  O3       1.0000 0.03618  0.67728  0.48478  Biso   1.000  O 
  O4       1.0000 0.48478  0.03618  0.67728  Biso   1.000  O 
  O5       1.0000 0.96382  0.51522  0.32272  Biso   1.000  O 
  O6       1.0000 0.51522  0.32272  0.96382  Biso   1.000  O 
  O7       1.0000 0.32272  0.96382  0.51522  Biso   1.000  O 
