data_image0
_cell_length_a       7.82379
_cell_length_b       7.82379
_cell_length_c       12.5521
_cell_angle_alpha    90
_cell_angle_beta     90
_cell_angle_gamma    90

_symmetry_space_group_name_H-M    "P 1"
_symmetry_int_tables_number       1

loop_
  _symmetry_equiv_pos_as_xyz
  'x, y, z'

loop_
  _atom_site_label
  _atom_site_occupancy
  _atom_site_fract_x
  _atom_site_fract_y
  _atom_site_fract_z
  _atom_site_thermal_displace_type
  _atom_site_B_iso_or_equiv
  _atom_site_type_symbol
  Bi1      1.0000 0.50000  0.50000  0.62597  Biso   1.000  Bi
  Bi2      1.0000 0.50000  0.50000  0.37403  Biso   1.000  Bi
  Bi3      1.0000 0.00000  0.00000  0.87403  Biso   1.000  Bi
  Bi4      1.0000 0.00000  0.00000  0.12597  Biso   1.000  Bi
  Al1      1.0000 0.00000  0.50000  0.75000  Biso   1.000  Al
  Al2      1.0000 0.00000  0.50000  0.25000  Biso   1.000  Al
  Al3      1.0000 0.50000  0.00000  0.75000  Biso   1.000  Al
  Al4      1.0000 0.50000  0.00000  0.25000  Biso   1.000  Al
  Al5      1.0000 0.00000  0.50000  0.00000  Biso   1.000  Al
  Al6      1.0000 0.50000  0.00000  0.50000  Biso   1.000  Al
  Al7      1.0000 0.50000  0.00000  0.00000  Biso   1.000  Al
  Al8      1.0000 0.00000  0.50000  0.50000  Biso   1.000  Al
  Se1      1.0000 0.67349  0.16051  0.62450  Biso   1.000  Se
  Se2      1.0000 0.32651  0.83949  0.62450  Biso   1.000  Se
  Se3      1.0000 0.32651  0.16051  0.37550  Biso   1.000  Se
  Se4      1.0000 0.67349  0.83949  0.37550  Biso   1.000  Se
  Se5      1.0000 0.82651  0.33949  0.87550  Biso   1.000  Se
  Se6      1.0000 0.17349  0.66051  0.87550  Biso   1.000  Se
  Se7      1.0000 0.17349  0.33949  0.12450  Biso   1.000  Se
  Se8      1.0000 0.82651  0.66051  0.12450  Biso   1.000  Se
  Se9      1.0000 0.16051  0.67349  0.37550  Biso   1.000  Se
  Se10     1.0000 0.83949  0.32651  0.37550  Biso   1.000  Se
  Se11     1.0000 0.16051  0.32651  0.62450  Biso   1.000  Se
  Se12     1.0000 0.83949  0.67349  0.62450  Biso   1.000  Se
  Se13     1.0000 0.33949  0.82651  0.12450  Biso   1.000  Se
  Se14     1.0000 0.66051  0.17349  0.12450  Biso   1.000  Se
  Se15     1.0000 0.33949  0.17349  0.87550  Biso   1.000  Se
  Se16     1.0000 0.66051  0.82651  0.87550  Biso   1.000  Se
