data_image0
_cell_length_a       7.52258
_cell_length_b       7.52258
_cell_length_c       11.9549
_cell_angle_alpha    90
_cell_angle_beta     90
_cell_angle_gamma    90

_symmetry_space_group_name_H-M    "P 1"
_symmetry_int_tables_number       1

loop_
  _symmetry_equiv_pos_as_xyz
  'x, y, z'

loop_
  _atom_site_label
  _atom_site_occupancy
  _atom_site_fract_x
  _atom_site_fract_y
  _atom_site_fract_z
  _atom_site_thermal_displace_type
  _atom_site_B_iso_or_equiv
  _atom_site_type_symbol
  Bi1      1.0000 0.50000  0.50000  0.63169  Biso   1.000  Bi
  Bi2      1.0000 0.50000  0.50000  0.36831  Biso   1.000  Bi
  Bi3      1.0000 0.00000  0.00000  0.86831  Biso   1.000  Bi
  Bi4      1.0000 0.00000  0.00000  0.13169  Biso   1.000  Bi
  Al1      1.0000 0.00000  0.50000  0.75000  Biso   1.000  Al
  Al2      1.0000 0.00000  0.50000  0.25000  Biso   1.000  Al
  Al3      1.0000 0.50000  0.00000  0.75000  Biso   1.000  Al
  Al4      1.0000 0.50000  0.00000  0.25000  Biso   1.000  Al
  Al5      1.0000 0.00000  0.50000  0.00000  Biso   1.000  Al
  Al6      1.0000 0.50000  0.00000  0.50000  Biso   1.000  Al
  Al7      1.0000 0.50000  0.00000  0.00000  Biso   1.000  Al
  Al8      1.0000 0.00000  0.50000  0.50000  Biso   1.000  Al
  S1       1.0000 0.66408  0.15881  0.62483  Biso   1.000  S 
  S2       1.0000 0.33592  0.84119  0.62483  Biso   1.000  S 
  S3       1.0000 0.33592  0.15881  0.37517  Biso   1.000  S 
  S4       1.0000 0.66408  0.84119  0.37517  Biso   1.000  S 
  S5       1.0000 0.83592  0.34119  0.87517  Biso   1.000  S 
  S6       1.0000 0.16408  0.65881  0.87517  Biso   1.000  S 
  S7       1.0000 0.16408  0.34119  0.12483  Biso   1.000  S 
  S8       1.0000 0.83592  0.65881  0.12483  Biso   1.000  S 
  S9       1.0000 0.15881  0.66408  0.37517  Biso   1.000  S 
  S10      1.0000 0.84119  0.33592  0.37517  Biso   1.000  S 
  S11      1.0000 0.15881  0.33592  0.62483  Biso   1.000  S 
  S12      1.0000 0.84119  0.66408  0.62483  Biso   1.000  S 
  S13      1.0000 0.34119  0.83592  0.12483  Biso   1.000  S 
  S14      1.0000 0.65881  0.16408  0.12483  Biso   1.000  S 
  S15      1.0000 0.34119  0.16408  0.87517  Biso   1.000  S 
  S16      1.0000 0.65881  0.83592  0.87517  Biso   1.000  S 
