data_image0
_cell_length_a       7.2984
_cell_length_b       11.6544
_cell_length_c       11.6298
_cell_angle_alpha    90
_cell_angle_beta     90
_cell_angle_gamma    90

_symmetry_space_group_name_H-M    "P 1"
_symmetry_int_tables_number       1

loop_
  _symmetry_equiv_pos_as_xyz
  'x, y, z'

loop_
  _atom_site_label
  _atom_site_occupancy
  _atom_site_fract_x
  _atom_site_fract_y
  _atom_site_fract_z
  _atom_site_thermal_displace_type
  _atom_site_B_iso_or_equiv
  _atom_site_type_symbol
  Ba1      1.0000 0.57659  0.07840  0.35984  Biso   1.000  Ba
  Ba2      1.0000 0.07659  0.42160  0.14016  Biso   1.000  Ba
  Ba3      1.0000 0.42341  0.57840  0.64016  Biso   1.000  Ba
  Ba4      1.0000 0.92341  0.92160  0.85984  Biso   1.000  Ba
  Ba5      1.0000 0.42341  0.92160  0.64016  Biso   1.000  Ba
  Ba6      1.0000 0.92341  0.57840  0.85984  Biso   1.000  Ba
  Ba7      1.0000 0.57659  0.42160  0.35984  Biso   1.000  Ba
  Ba8      1.0000 0.07659  0.07840  0.14016  Biso   1.000  Ba
  Ba9      1.0000 0.59972  0.25000  0.73193  Biso   1.000  Ba
  Ba10     1.0000 0.09972  0.25000  0.76808  Biso   1.000  Ba
  Ba11     1.0000 0.40028  0.75000  0.26807  Biso   1.000  Ba
  Ba12     1.0000 0.90028  0.75000  0.23192  Biso   1.000  Ba
  Al1      1.0000 0.55777  0.12512  0.03465  Biso   1.000  Al
  Al2      1.0000 0.05777  0.37488  0.46535  Biso   1.000  Al
  Al3      1.0000 0.44223  0.62512  0.96535  Biso   1.000  Al
  Al4      1.0000 0.94223  0.87488  0.53465  Biso   1.000  Al
  Al5      1.0000 0.44223  0.87488  0.96535  Biso   1.000  Al
  Al6      1.0000 0.94223  0.62512  0.53465  Biso   1.000  Al
  Al7      1.0000 0.55777  0.37488  0.03465  Biso   1.000  Al
  Al8      1.0000 0.05777  0.12512  0.46535  Biso   1.000  Al
  P1       1.0000 0.65501  0.55488  0.11299  Biso   1.000  P 
  P2       1.0000 0.15501  0.94512  0.38701  Biso   1.000  P 
  P3       1.0000 0.34499  0.05488  0.88701  Biso   1.000  P 
  P4       1.0000 0.84499  0.44512  0.61299  Biso   1.000  P 
  P5       1.0000 0.34499  0.44512  0.88701  Biso   1.000  P 
  P6       1.0000 0.84499  0.05488  0.61299  Biso   1.000  P 
  P7       1.0000 0.65501  0.94512  0.11299  Biso   1.000  P 
  P8       1.0000 0.15501  0.55488  0.38701  Biso   1.000  P 
  P9       1.0000 0.80778  0.25000  0.97155  Biso   1.000  P 
  P10      1.0000 0.30778  0.25000  0.52845  Biso   1.000  P 
  P11      1.0000 0.19222  0.75000  0.02845  Biso   1.000  P 
  P12      1.0000 0.69222  0.75000  0.47155  Biso   1.000  P 
  P13      1.0000 0.90638  0.25000  0.33262  Biso   1.000  P 
  P14      1.0000 0.40638  0.25000  0.16738  Biso   1.000  P 
  P15      1.0000 0.09362  0.75000  0.66738  Biso   1.000  P 
  P16      1.0000 0.59362  0.75000  0.83262  Biso   1.000  P 
