data_image0
_cell_length_a       6.60678
_cell_length_b       6.60678
_cell_length_c       24.6413
_cell_angle_alpha    90
_cell_angle_beta     90
_cell_angle_gamma    120

_symmetry_space_group_name_H-M    "P 1"
_symmetry_int_tables_number       1

loop_
  _symmetry_equiv_pos_as_xyz
  'x, y, z'

loop_
  _atom_site_label
  _atom_site_occupancy
  _atom_site_fract_x
  _atom_site_fract_y
  _atom_site_fract_z
  _atom_site_thermal_displace_type
  _atom_site_B_iso_or_equiv
  _atom_site_type_symbol
  Bi1      1.0000 0.66667  0.33333  0.32018  Biso   1.000  Bi
  Bi2      1.0000 0.33333  0.66667  0.82018  Biso   1.000  Bi
  Bi3      1.0000 0.33333  0.66667  0.67982  Biso   1.000  Bi
  Bi4      1.0000 0.66667  0.33333  0.17982  Biso   1.000  Bi
  Cu1      1.0000 0.33333  0.66667  0.25000  Biso   1.000  Cu
  Cu2      1.0000 0.66667  0.33333  0.75000  Biso   1.000  Cu
  Cu3      1.0000 0.00000  0.00000  0.25000  Biso   1.000  Cu
  Cu4      1.0000 0.00000  0.00000  0.75000  Biso   1.000  Cu
  S1       1.0000 0.66725  0.64858  0.25000  Biso   1.000  S 
  S2       1.0000 0.98133  0.33275  0.25000  Biso   1.000  S 
  S3       1.0000 0.35142  0.01867  0.25000  Biso   1.000  S 
  S4       1.0000 0.33275  0.35142  0.75000  Biso   1.000  S 
  S5       1.0000 0.01867  0.66725  0.75000  Biso   1.000  S 
  S6       1.0000 0.64858  0.98133  0.75000  Biso   1.000  S 
  Al1      1.0000 0.33333  0.66667  0.41858  Biso   1.000  Al
  Al2      1.0000 0.66667  0.33333  0.91858  Biso   1.000  Al
  Al3      1.0000 0.66667  0.33333  0.58142  Biso   1.000  Al
  Al4      1.0000 0.33333  0.66667  0.08142  Biso   1.000  Al
  Cl1      1.0000 0.33333  0.66667  0.50371  Biso   1.000  Cl
  Cl2      1.0000 0.66667  0.33333  0.00371  Biso   1.000  Cl
  Cl3      1.0000 0.66667  0.33333  0.49629  Biso   1.000  Cl
  Cl4      1.0000 0.33333  0.66667  0.99629  Biso   1.000  Cl
  Cl5      1.0000 0.06240  0.72547  0.38412  Biso   1.000  Cl
  Cl6      1.0000 0.66307  0.93760  0.38412  Biso   1.000  Cl
  Cl7      1.0000 0.27453  0.33693  0.38412  Biso   1.000  Cl
  Cl8      1.0000 0.93760  0.27453  0.88412  Biso   1.000  Cl
  Cl9      1.0000 0.33693  0.06240  0.88412  Biso   1.000  Cl
  Cl10     1.0000 0.72547  0.66307  0.88412  Biso   1.000  Cl
  Cl11     1.0000 0.93760  0.27453  0.61588  Biso   1.000  Cl
  Cl12     1.0000 0.33693  0.06240  0.61588  Biso   1.000  Cl
  Cl13     1.0000 0.72547  0.66307  0.61588  Biso   1.000  Cl
  Cl14     1.0000 0.06240  0.72547  0.11588  Biso   1.000  Cl
  Cl15     1.0000 0.66307  0.93760  0.11588  Biso   1.000  Cl
  Cl16     1.0000 0.27453  0.33693  0.11588  Biso   1.000  Cl
