data_image0
_cell_length_a       9.5161
_cell_length_b       9.5161
_cell_length_c       11.5507
_cell_angle_alpha    54.6331
_cell_angle_beta     54.6331
_cell_angle_gamma    49.6814

_symmetry_space_group_name_H-M    "P 1"
_symmetry_int_tables_number       1

loop_
  _symmetry_equiv_pos_as_xyz
  'x, y, z'

loop_
  _atom_site_label
  _atom_site_occupancy
  _atom_site_fract_x
  _atom_site_fract_y
  _atom_site_fract_z
  _atom_site_thermal_displace_type
  _atom_site_B_iso_or_equiv
  _atom_site_type_symbol
  Ni1      1.0000 0.99585  0.00415  0.25000  Biso   1.000  Ni
  Ni2      1.0000 0.00415  0.99585  0.75000  Biso   1.000  Ni
  Al1      1.0000 0.67325  0.15945  0.53135  Biso   1.000  Al
  Al2      1.0000 0.15945  0.67325  0.03135  Biso   1.000  Al
  Al3      1.0000 0.32675  0.84055  0.46865  Biso   1.000  Al
  Al4      1.0000 0.84055  0.32675  0.96865  Biso   1.000  Al
  Cl1      1.0000 0.37673  0.31122  0.55459  Biso   1.000  Cl
  Cl2      1.0000 0.31122  0.37673  0.05459  Biso   1.000  Cl
  Cl3      1.0000 0.62327  0.68878  0.44541  Biso   1.000  Cl
  Cl4      1.0000 0.68878  0.62327  0.94541  Biso   1.000  Cl
  Cl5      1.0000 0.69428  0.14067  0.71873  Biso   1.000  Cl
  Cl6      1.0000 0.14067  0.69428  0.21873  Biso   1.000  Cl
  Cl7      1.0000 0.30572  0.85933  0.28127  Biso   1.000  Cl
  Cl8      1.0000 0.85933  0.30572  0.78127  Biso   1.000  Cl
  Cl9      1.0000 0.84841  0.28663  0.31487  Biso   1.000  Cl
  Cl10     1.0000 0.28663  0.84841  0.81487  Biso   1.000  Cl
  Cl11     1.0000 0.15159  0.71337  0.68513  Biso   1.000  Cl
  Cl12     1.0000 0.71337  0.15159  0.18513  Biso   1.000  Cl
  Cl13     1.0000 0.83050  0.87108  0.51233  Biso   1.000  Cl
  Cl14     1.0000 0.87108  0.83050  0.01233  Biso   1.000  Cl
  Cl15     1.0000 0.16950  0.12892  0.48767  Biso   1.000  Cl
  Cl16     1.0000 0.12892  0.16950  0.98767  Biso   1.000  Cl
