data_image0
_cell_length_a       8.00808
_cell_length_b       8.00808
_cell_length_c       6.44881
_cell_angle_alpha    90.4303
_cell_angle_beta     90.4303
_cell_angle_gamma    75.8713

_symmetry_space_group_name_H-M    "P 1"
_symmetry_int_tables_number       1

loop_
  _symmetry_equiv_pos_as_xyz
  'x, y, z'

loop_
  _atom_site_label
  _atom_site_occupancy
  _atom_site_fract_x
  _atom_site_fract_y
  _atom_site_fract_z
  _atom_site_thermal_displace_type
  _atom_site_B_iso_or_equiv
  _atom_site_type_symbol
  Ca1      1.0000 0.99197  0.24961  0.97040  Biso   1.000  Ca
  Ca2      1.0000 0.75039  0.00803  0.52960  Biso   1.000  Ca
  Ca3      1.0000 0.00803  0.75039  0.02960  Biso   1.000  Ca
  Ca4      1.0000 0.24961  0.99197  0.47040  Biso   1.000  Ca
  Ca5      1.0000 0.59865  0.40135  0.25000  Biso   1.000  Ca
  Ca6      1.0000 0.40135  0.59865  0.75000  Biso   1.000  Ca
  Al1      1.0000 0.17206  0.42058  0.41130  Biso   1.000  Al
  Al2      1.0000 0.57942  0.82794  0.08870  Biso   1.000  Al
  Al3      1.0000 0.82794  0.57942  0.58870  Biso   1.000  Al
  Al4      1.0000 0.42058  0.17206  0.91130  Biso   1.000  Al
  P1       1.0000 0.94119  0.28373  0.47695  Biso   1.000  P 
  P2       1.0000 0.71627  0.05881  0.02304  Biso   1.000  P 
  P3       1.0000 0.05881  0.71627  0.52304  Biso   1.000  P 
  P4       1.0000 0.28373  0.94119  0.97695  Biso   1.000  P 
  P5       1.0000 0.25736  0.43189  0.06250  Biso   1.000  P 
  P6       1.0000 0.56811  0.74264  0.43750  Biso   1.000  P 
  P7       1.0000 0.74264  0.56811  0.93750  Biso   1.000  P 
  P8       1.0000 0.43189  0.25736  0.56250  Biso   1.000  P 
