data_image0
_cell_length_a       4.34135
_cell_length_b       11.4625
_cell_length_c       14.8962
_cell_angle_alpha    90
_cell_angle_beta     90
_cell_angle_gamma    90

_symmetry_space_group_name_H-M    "P 1"
_symmetry_int_tables_number       1

loop_
  _symmetry_equiv_pos_as_xyz
  'x, y, z'

loop_
  _atom_site_label
  _atom_site_occupancy
  _atom_site_fract_x
  _atom_site_fract_y
  _atom_site_fract_z
  _atom_site_thermal_displace_type
  _atom_site_B_iso_or_equiv
  _atom_site_type_symbol
  Ge1      1.0000 0.25000  0.80213  0.93316  Biso   1.000  Ge
  Ge2      1.0000 0.25000  0.30213  0.56684  Biso   1.000  Ge
  Ge3      1.0000 0.75000  0.19787  0.06684  Biso   1.000  Ge
  Ge4      1.0000 0.75000  0.69787  0.43316  Biso   1.000  Ge
  Ge5      1.0000 0.25000  0.36156  0.29986  Biso   1.000  Ge
  Ge6      1.0000 0.25000  0.86156  0.20014  Biso   1.000  Ge
  Ge7      1.0000 0.75000  0.63844  0.70014  Biso   1.000  Ge
  Ge8      1.0000 0.75000  0.13844  0.79986  Biso   1.000  Ge
  Ge9      1.0000 0.25000  0.42907  0.86131  Biso   1.000  Ge
  Ge10     1.0000 0.25000  0.92907  0.63869  Biso   1.000  Ge
  Ge11     1.0000 0.75000  0.57093  0.13869  Biso   1.000  Ge
  Ge12     1.0000 0.75000  0.07093  0.36131  Biso   1.000  Ge
  Ca1      1.0000 0.75000  0.39476  0.43774  Biso   1.000  Ca
  Ca2      1.0000 0.75000  0.89476  0.06226  Biso   1.000  Ca
  Ca3      1.0000 0.25000  0.60524  0.56226  Biso   1.000  Ca
  Ca4      1.0000 0.25000  0.10524  0.93774  Biso   1.000  Ca
  Ca5      1.0000 0.25000  0.62268  0.29661  Biso   1.000  Ca
  Ca6      1.0000 0.25000  0.12268  0.20339  Biso   1.000  Ca
  Ca7      1.0000 0.75000  0.37732  0.70339  Biso   1.000  Ca
  Ca8      1.0000 0.75000  0.87732  0.79661  Biso   1.000  Ca
  Ca9      1.0000 0.25000  0.39407  0.06575  Biso   1.000  Ca
  Ca10     1.0000 0.25000  0.89407  0.43425  Biso   1.000  Ca
  Ca11     1.0000 0.75000  0.60593  0.93425  Biso   1.000  Ca
  Ca12     1.0000 0.75000  0.10593  0.56575  Biso   1.000  Ca
  Al1      1.0000 0.25000  0.18350  0.41258  Biso   1.000  Al
  Al2      1.0000 0.25000  0.68350  0.08742  Biso   1.000  Al
  Al3      1.0000 0.75000  0.81650  0.58742  Biso   1.000  Al
  Al4      1.0000 0.75000  0.31650  0.91258  Biso   1.000  Al
  Al5      1.0000 0.75000  0.35689  0.20886  Biso   1.000  Al
  Al6      1.0000 0.75000  0.85689  0.29114  Biso   1.000  Al
  Al7      1.0000 0.25000  0.64311  0.79114  Biso   1.000  Al
  Al8      1.0000 0.25000  0.14311  0.70886  Biso   1.000  Al
