data_image0
_cell_length_a       6.83669
_cell_length_b       6.83669
_cell_length_c       6.83669
_cell_angle_alpha    129.071
_cell_angle_beta     129.071
_cell_angle_gamma    74.8956

_symmetry_space_group_name_H-M    "P 1"
_symmetry_int_tables_number       1

loop_
  _symmetry_equiv_pos_as_xyz
  'x, y, z'

loop_
  _atom_site_label
  _atom_site_occupancy
  _atom_site_fract_x
  _atom_site_fract_y
  _atom_site_fract_z
  _atom_site_thermal_displace_type
  _atom_site_B_iso_or_equiv
  _atom_site_type_symbol
  Cd1      1.0000 0.00000  0.00000  0.00000  Biso   1.000  Cd
  Al1      1.0000 0.50000  0.50000  0.00000  Biso   1.000  Al
  Al2      1.0000 0.75000  0.25000  0.50000  Biso   1.000  Al
  Se1      1.0000 0.13274  0.59452  0.00099  Biso   1.000  Se
  Se2      1.0000 0.59353  0.13175  0.99901  Biso   1.000  Se
  Se3      1.0000 0.86825  0.86726  0.46178  Biso   1.000  Se
  Se4      1.0000 0.40548  0.40647  0.53822  Biso   1.000  Se
