data_image0
_cell_length_a       9.61504
_cell_length_b       9.61504
_cell_length_c       11.8224
_cell_angle_alpha    54.6114
_cell_angle_beta     54.6114
_cell_angle_gamma    48.7423

_symmetry_space_group_name_H-M    "P 1"
_symmetry_int_tables_number       1

loop_
  _symmetry_equiv_pos_as_xyz
  'x, y, z'

loop_
  _atom_site_label
  _atom_site_occupancy
  _atom_site_fract_x
  _atom_site_fract_y
  _atom_site_fract_z
  _atom_site_thermal_displace_type
  _atom_site_B_iso_or_equiv
  _atom_site_type_symbol
  Ti1      1.0000 0.99825  0.00175  0.25000  Biso   1.000  Ti
  Ti2      1.0000 0.00175  0.99825  0.75000  Biso   1.000  Ti
  Al1      1.0000 0.66593  0.15678  0.03353  Biso   1.000  Al
  Al2      1.0000 0.15678  0.66593  0.53353  Biso   1.000  Al
  Al3      1.0000 0.33407  0.84322  0.96647  Biso   1.000  Al
  Al4      1.0000 0.84322  0.33407  0.46647  Biso   1.000  Al
  Cl1      1.0000 0.83018  0.29277  0.82287  Biso   1.000  Cl
  Cl2      1.0000 0.29277  0.83018  0.32287  Biso   1.000  Cl
  Cl3      1.0000 0.16982  0.70723  0.17713  Biso   1.000  Cl
  Cl4      1.0000 0.70723  0.16982  0.67713  Biso   1.000  Cl
  Cl5      1.0000 0.83446  0.86300  0.02101  Biso   1.000  Cl
  Cl6      1.0000 0.86300  0.83446  0.52101  Biso   1.000  Cl
  Cl7      1.0000 0.16554  0.13700  0.97899  Biso   1.000  Cl
  Cl8      1.0000 0.13700  0.16554  0.47899  Biso   1.000  Cl
  Cl9      1.0000 0.68172  0.14702  0.21616  Biso   1.000  Cl
  Cl10     1.0000 0.14702  0.68172  0.71616  Biso   1.000  Cl
  Cl11     1.0000 0.31828  0.85298  0.78384  Biso   1.000  Cl
  Cl12     1.0000 0.85298  0.31828  0.28384  Biso   1.000  Cl
  Cl13     1.0000 0.37059  0.30329  0.05447  Biso   1.000  Cl
  Cl14     1.0000 0.30329  0.37059  0.55447  Biso   1.000  Cl
  Cl15     1.0000 0.62941  0.69671  0.94553  Biso   1.000  Cl
  Cl16     1.0000 0.69671  0.62941  0.44553  Biso   1.000  Cl
