data_image0
_cell_length_a       9.10342
_cell_length_b       5.53593
_cell_length_c       15.0172
_cell_angle_alpha    90
_cell_angle_beta     90
_cell_angle_gamma    90

_symmetry_space_group_name_H-M    "P 1"
_symmetry_int_tables_number       1

loop_
  _symmetry_equiv_pos_as_xyz
  'x, y, z'

loop_
  _atom_site_label
  _atom_site_occupancy
  _atom_site_fract_x
  _atom_site_fract_y
  _atom_site_fract_z
  _atom_site_thermal_displace_type
  _atom_site_B_iso_or_equiv
  _atom_site_type_symbol
  Ca1      1.0000 0.06686  0.36248  0.14560  Biso   1.000  Ca
  Ca2      1.0000 0.06686  0.63752  0.64560  Biso   1.000  Ca
  Ca3      1.0000 0.43314  0.86248  0.14560  Biso   1.000  Ca
  Ca4      1.0000 0.56686  0.86248  0.35440  Biso   1.000  Ca
  Ca5      1.0000 0.93314  0.63752  0.85440  Biso   1.000  Ca
  Ca6      1.0000 0.93314  0.36248  0.35440  Biso   1.000  Ca
  Ca7      1.0000 0.56686  0.13752  0.85440  Biso   1.000  Ca
  Ca8      1.0000 0.43314  0.13752  0.64560  Biso   1.000  Ca
  Al1      1.0000 0.34310  0.31020  0.02876  Biso   1.000  Al
  Al2      1.0000 0.34310  0.68980  0.52876  Biso   1.000  Al
  Al3      1.0000 0.15690  0.81020  0.02876  Biso   1.000  Al
  Al4      1.0000 0.84310  0.81020  0.47124  Biso   1.000  Al
  Al5      1.0000 0.65690  0.68980  0.97124  Biso   1.000  Al
  Al6      1.0000 0.65690  0.31020  0.47124  Biso   1.000  Al
  Al7      1.0000 0.84310  0.18980  0.97124  Biso   1.000  Al
  Al8      1.0000 0.15690  0.18980  0.52876  Biso   1.000  Al
  Sn1      1.0000 0.34481  0.36630  0.33398  Biso   1.000  Sn
  Sn2      1.0000 0.34481  0.63370  0.83398  Biso   1.000  Sn
  Sn3      1.0000 0.15519  0.86630  0.33398  Biso   1.000  Sn
  Sn4      1.0000 0.84481  0.86630  0.16602  Biso   1.000  Sn
  Sn5      1.0000 0.65519  0.63370  0.66602  Biso   1.000  Sn
  Sn6      1.0000 0.65519  0.36630  0.16602  Biso   1.000  Sn
  Sn7      1.0000 0.84481  0.13370  0.66602  Biso   1.000  Sn
  Sn8      1.0000 0.15519  0.13370  0.83398  Biso   1.000  Sn
  O1       1.0000 0.16113  0.19246  0.40942  Biso   1.000  O 
  O2       1.0000 0.16113  0.80754  0.90942  Biso   1.000  O 
  O3       1.0000 0.33887  0.69246  0.40942  Biso   1.000  O 
  O4       1.0000 0.66113  0.69246  0.09058  Biso   1.000  O 
  O5       1.0000 0.83887  0.80754  0.59058  Biso   1.000  O 
  O6       1.0000 0.83887  0.19246  0.09058  Biso   1.000  O 
  O7       1.0000 0.66113  0.30754  0.59058  Biso   1.000  O 
  O8       1.0000 0.33887  0.30754  0.90942  Biso   1.000  O 
  O9       1.0000 0.22768  0.08053  0.07214  Biso   1.000  O 
  O10      1.0000 0.22768  0.91947  0.57214  Biso   1.000  O 
  O11      1.0000 0.27232  0.58053  0.07214  Biso   1.000  O 
  O12      1.0000 0.72768  0.58053  0.42786  Biso   1.000  O 
  O13      1.0000 0.77232  0.91947  0.92786  Biso   1.000  O 
  O14      1.0000 0.77232  0.08053  0.42786  Biso   1.000  O 
  O15      1.0000 0.72768  0.41947  0.92786  Biso   1.000  O 
  O16      1.0000 0.27232  0.41947  0.57214  Biso   1.000  O 
  O17      1.0000 0.33325  0.03453  0.27205  Biso   1.000  O 
  O18      1.0000 0.33325  0.96547  0.77205  Biso   1.000  O 
  O19      1.0000 0.16675  0.53453  0.27205  Biso   1.000  O 
  O20      1.0000 0.83325  0.53453  0.22795  Biso   1.000  O 
  O21      1.0000 0.66675  0.96547  0.72795  Biso   1.000  O 
  O22      1.0000 0.66675  0.03453  0.22795  Biso   1.000  O 
  O23      1.0000 0.83325  0.46547  0.72795  Biso   1.000  O 
  O24      1.0000 0.16675  0.46547  0.77205  Biso   1.000  O 
  O25      1.0000 0.51427  0.22767  0.07350  Biso   1.000  O 
  O26      1.0000 0.51427  0.77233  0.57350  Biso   1.000  O 
  O27      1.0000 0.98573  0.72767  0.07350  Biso   1.000  O 
  O28      1.0000 0.01427  0.72767  0.42650  Biso   1.000  O 
  O29      1.0000 0.48573  0.77233  0.92650  Biso   1.000  O 
  O30      1.0000 0.48573  0.22767  0.42650  Biso   1.000  O 
  O31      1.0000 0.01427  0.27233  0.92650  Biso   1.000  O 
  O32      1.0000 0.98573  0.27233  0.57350  Biso   1.000  O 
  O33      1.0000 0.00000  0.03114  0.25000  Biso   1.000  O 
  O34      1.0000 0.00000  0.96886  0.75000  Biso   1.000  O 
  O35      1.0000 0.50000  0.53114  0.25000  Biso   1.000  O 
  O36      1.0000 0.50000  0.46886  0.75000  Biso   1.000  O 
