data_image0
_cell_length_a       7.41948
_cell_length_b       7.41948
_cell_length_c       7.41948
_cell_angle_alpha    129.505
_cell_angle_beta     129.505
_cell_angle_gamma    74.1991

_symmetry_space_group_name_H-M    "P 1"
_symmetry_int_tables_number       1

loop_
  _symmetry_equiv_pos_as_xyz
  'x, y, z'

loop_
  _atom_site_label
  _atom_site_occupancy
  _atom_site_fract_x
  _atom_site_fract_y
  _atom_site_fract_z
  _atom_site_thermal_displace_type
  _atom_site_B_iso_or_equiv
  _atom_site_type_symbol
  Cd1      1.0000 0.00000  0.00000  0.00000  Biso   1.000  Cd
  Al1      1.0000 0.50000  0.50000  0.00000  Biso   1.000  Al
  Al2      1.0000 0.75000  0.25000  0.50000  Biso   1.000  Al
  Te1      1.0000 0.13461  0.60469  0.01390  Biso   1.000  Te
  Te2      1.0000 0.59079  0.12071  0.98610  Biso   1.000  Te
  Te3      1.0000 0.87929  0.86539  0.47008  Biso   1.000  Te
  Te4      1.0000 0.39531  0.40921  0.52992  Biso   1.000  Te
