data_image0
_cell_length_a       6.47205
_cell_length_b       6.47205
_cell_length_c       6.47205
_cell_angle_alpha    128.32
_cell_angle_beta     128.32
_cell_angle_gamma    76.1072

_symmetry_space_group_name_H-M    "P 1"
_symmetry_int_tables_number       1

loop_
  _symmetry_equiv_pos_as_xyz
  'x, y, z'

loop_
  _atom_site_label
  _atom_site_occupancy
  _atom_site_fract_x
  _atom_site_fract_y
  _atom_site_fract_z
  _atom_site_thermal_displace_type
  _atom_site_B_iso_or_equiv
  _atom_site_type_symbol
  Cd1      1.0000 0.50000  0.50000  0.00000  Biso   1.000  Cd
  Al1      1.0000 0.00000  0.00000  0.00000  Biso   1.000  Al
  Al2      1.0000 0.75000  0.25000  0.50000  Biso   1.000  Al
  S1       1.0000 0.08559  0.62984  0.98457  Biso   1.000  S 
  S2       1.0000 0.64528  0.10102  0.01543  Biso   1.000  S 
  S3       1.0000 0.89898  0.91441  0.54426  Biso   1.000  S 
  S4       1.0000 0.37016  0.35472  0.45574  Biso   1.000  S 
