data_image0
_cell_length_a       5.27744
_cell_length_b       5.27744
_cell_length_c       13.298
_cell_angle_alpha    90
_cell_angle_beta     90
_cell_angle_gamma    110.459

_symmetry_space_group_name_H-M    "P 1"
_symmetry_int_tables_number       1

loop_
  _symmetry_equiv_pos_as_xyz
  'x, y, z'

loop_
  _atom_site_label
  _atom_site_occupancy
  _atom_site_fract_x
  _atom_site_fract_y
  _atom_site_fract_z
  _atom_site_thermal_displace_type
  _atom_site_B_iso_or_equiv
  _atom_site_type_symbol
  Ca1      1.0000 0.34363  0.65637  0.25000  Biso   1.000  Ca
  Ca2      1.0000 0.65637  0.34363  0.75000  Biso   1.000  Ca
  Al1      1.0000 1.00000  0.50000  0.50000  Biso   1.000  Al
  Al2      1.0000 0.50000  1.00000  0.50000  Biso   1.000  Al
  Al3      1.0000 1.00000  0.50000  0.00000  Biso   1.000  Al
  Al4      1.0000 0.50000  1.00000  0.00000  Biso   1.000  Al
  Si1      1.0000 0.97924  0.02076  0.36501  Biso   1.000  Si
  Si2      1.0000 0.02076  0.97924  0.63499  Biso   1.000  Si
  Si3      1.0000 0.97924  0.02076  0.13499  Biso   1.000  Si
  Si4      1.0000 0.02076  0.97924  0.86501  Biso   1.000  Si
  O1       1.0000 0.05854  0.94146  0.25000  Biso   1.000  O 
  O2       1.0000 0.94146  0.05854  0.75000  Biso   1.000  O 
  O3       1.0000 0.09410  0.34883  0.37454  Biso   1.000  O 
  O4       1.0000 0.34883  0.09410  0.62546  Biso   1.000  O 
  O5       1.0000 0.09410  0.34883  0.12546  Biso   1.000  O 
  O6       1.0000 0.34883  0.09410  0.87454  Biso   1.000  O 
  O7       1.0000 0.90590  0.65117  0.62546  Biso   1.000  O 
  O8       1.0000 0.65117  0.90590  0.37454  Biso   1.000  O 
  O9       1.0000 0.90590  0.65117  0.87454  Biso   1.000  O 
  O10      1.0000 0.65117  0.90590  0.12546  Biso   1.000  O 
  O11      1.0000 0.13074  0.86926  0.44374  Biso   1.000  O 
  O12      1.0000 0.86926  0.13074  0.55626  Biso   1.000  O 
  O13      1.0000 0.13074  0.86926  0.05626  Biso   1.000  O 
  O14      1.0000 0.86926  0.13074  0.94374  Biso   1.000  O 
  O15      1.0000 0.63646  0.36354  0.46156  Biso   1.000  O 
  O16      1.0000 0.36354  0.63646  0.53844  Biso   1.000  O 
  O17      1.0000 0.63646  0.36354  0.03844  Biso   1.000  O 
  O18      1.0000 0.36354  0.63646  0.96156  Biso   1.000  O 
  O19      1.0000 0.61478  0.38522  0.25000  Biso   1.000  O 
  O20      1.0000 0.38522  0.61478  0.75000  Biso   1.000  O 
  H1       1.0000 0.68179  0.31821  0.30946  Biso   1.000  H 
  H2       1.0000 0.31821  0.68179  0.69054  Biso   1.000  H 
  H3       1.0000 0.68179  0.31821  0.19054  Biso   1.000  H 
  H4       1.0000 0.31821  0.68179  0.80946  Biso   1.000  H 
  H5       1.0000 0.53005  0.46995  0.43854  Biso   1.000  H 
  H6       1.0000 0.46995  0.53005  0.56146  Biso   1.000  H 
  H7       1.0000 0.53005  0.46995  0.06146  Biso   1.000  H 
  H8       1.0000 0.46995  0.53005  0.93854  Biso   1.000  H 
