data_image0
_cell_length_a       9.56891
_cell_length_b       9.56891
_cell_length_c       11.6399
_cell_angle_alpha    54.881
_cell_angle_beta     54.881
_cell_angle_gamma    49.7115

_symmetry_space_group_name_H-M    "P 1"
_symmetry_int_tables_number       1

loop_
  _symmetry_equiv_pos_as_xyz
  'x, y, z'

loop_
  _atom_site_label
  _atom_site_occupancy
  _atom_site_fract_x
  _atom_site_fract_y
  _atom_site_fract_z
  _atom_site_thermal_displace_type
  _atom_site_B_iso_or_equiv
  _atom_site_type_symbol
  Co1      1.0000 0.00364  0.99636  0.25000  Biso   1.000  Co
  Co2      1.0000 0.99636  0.00364  0.75000  Biso   1.000  Co
  Al1      1.0000 0.67242  0.15841  0.03155  Biso   1.000  Al
  Al2      1.0000 0.15841  0.67242  0.53155  Biso   1.000  Al
  Al3      1.0000 0.32758  0.84159  0.96845  Biso   1.000  Al
  Al4      1.0000 0.84159  0.32758  0.46845  Biso   1.000  Al
  Cl1      1.0000 0.37795  0.30537  0.05545  Biso   1.000  Cl
  Cl2      1.0000 0.30537  0.37795  0.55545  Biso   1.000  Cl
  Cl3      1.0000 0.62205  0.69463  0.94455  Biso   1.000  Cl
  Cl4      1.0000 0.69463  0.62205  0.44455  Biso   1.000  Cl
  Cl5      1.0000 0.83316  0.87053  0.01362  Biso   1.000  Cl
  Cl6      1.0000 0.87053  0.83316  0.51362  Biso   1.000  Cl
  Cl7      1.0000 0.16684  0.12947  0.98638  Biso   1.000  Cl
  Cl8      1.0000 0.12947  0.16684  0.48638  Biso   1.000  Cl
  Cl9      1.0000 0.69366  0.14173  0.21676  Biso   1.000  Cl
  Cl10     1.0000 0.14173  0.69366  0.71676  Biso   1.000  Cl
  Cl11     1.0000 0.30634  0.85827  0.78324  Biso   1.000  Cl
  Cl12     1.0000 0.85827  0.30634  0.28324  Biso   1.000  Cl
  Cl13     1.0000 0.84129  0.28947  0.81747  Biso   1.000  Cl
  Cl14     1.0000 0.28947  0.84129  0.31747  Biso   1.000  Cl
  Cl15     1.0000 0.15871  0.71053  0.18253  Biso   1.000  Cl
  Cl16     1.0000 0.71053  0.15871  0.68253  Biso   1.000  Cl
