data_image0
_cell_length_a       9.96051
_cell_length_b       9.89552
_cell_length_c       10.4613
_cell_angle_alpha    76.8008
_cell_angle_beta     76.6957
_cell_angle_gamma    65.873

_symmetry_space_group_name_H-M    "P 1"
_symmetry_int_tables_number       1

loop_
  _symmetry_equiv_pos_as_xyz
  'x, y, z'

loop_
  _atom_site_label
  _atom_site_occupancy
  _atom_site_fract_x
  _atom_site_fract_y
  _atom_site_fract_z
  _atom_site_thermal_displace_type
  _atom_site_B_iso_or_equiv
  _atom_site_type_symbol
  Rh1      1.0000 0.00000  0.50000  0.00000  Biso   1.000  Rh
  Rh2      1.0000 0.50000  0.00000  0.50000  Biso   1.000  Rh
  C1       1.0000 0.94064  0.35538  0.13637  Biso   1.000  C 
  C2       1.0000 0.05936  0.64462  0.86363  Biso   1.000  C 
  C3       1.0000 0.79363  0.64082  0.01962  Biso   1.000  C 
  C4       1.0000 0.20637  0.35918  0.98038  Biso   1.000  C 
  C5       1.0000 0.53066  0.02469  0.30647  Biso   1.000  C 
  C6       1.0000 0.46934  0.97531  0.69353  Biso   1.000  C 
  C7       1.0000 0.69443  0.00883  0.48861  Biso   1.000  C 
  C8       1.0000 0.30557  0.99117  0.51139  Biso   1.000  C 
  O1       1.0000 0.90495  0.27213  0.21739  Biso   1.000  O 
  O2       1.0000 0.09505  0.72787  0.78261  Biso   1.000  O 
  O3       1.0000 0.67221  0.72196  0.03281  Biso   1.000  O 
  O4       1.0000 0.32779  0.27804  0.96719  Biso   1.000  O 
  O5       1.0000 0.55141  0.03936  0.19298  Biso   1.000  O 
  O6       1.0000 0.44859  0.96064  0.80702  Biso   1.000  O 
  O7       1.0000 0.80871  0.01465  0.47856  Biso   1.000  O 
  O8       1.0000 0.19129  0.98535  0.52144  Biso   1.000  O 
  Al1      1.0000 0.70051  0.56966  0.58106  Biso   1.000  Al
  Al2      1.0000 0.29949  0.43034  0.41894  Biso   1.000  Al
  Al3      1.0000 0.83033  0.19935  0.82317  Biso   1.000  Al
  Al4      1.0000 0.16967  0.80065  0.17683  Biso   1.000  Al
  Cl1      1.0000 0.81841  0.31658  0.60507  Biso   1.000  Cl
  Cl2      1.0000 0.18159  0.68342  0.39493  Biso   1.000  Cl
  Cl3      1.0000 0.47146  0.62328  0.66027  Biso   1.000  Cl
  Cl4      1.0000 0.52854  0.37672  0.33973  Biso   1.000  Cl
  Cl5      1.0000 0.73705  0.63536  0.37104  Biso   1.000  Cl
  Cl6      1.0000 0.26295  0.36464  0.62896  Biso   1.000  Cl
  Cl7      1.0000 0.81113  0.65360  0.67804  Biso   1.000  Cl
  Cl8      1.0000 0.18887  0.34640  0.32196  Biso   1.000  Cl
  Cl9      1.0000 0.68737  0.35954  0.94801  Biso   1.000  Cl
  Cl10     1.0000 0.31263  0.64046  0.05199  Biso   1.000  Cl
  Cl11     1.0000 0.05899  0.12446  0.84055  Biso   1.000  Cl
  Cl12     1.0000 0.94101  0.87554  0.15945  Biso   1.000  Cl
  Cl13     1.0000 0.75515  0.02547  0.82685  Biso   1.000  Cl
  Cl14     1.0000 0.24485  0.97453  0.17315  Biso   1.000  Cl
