data_image0
_cell_length_a       5.8102
_cell_length_b       9.58508
_cell_length_c       9.5707
_cell_angle_alpha    68.3876
_cell_angle_beta     90
_cell_angle_gamma    90

_symmetry_space_group_name_H-M    "P 1"
_symmetry_int_tables_number       1

loop_
  _symmetry_equiv_pos_as_xyz
  'x, y, z'

loop_
  _atom_site_label
  _atom_site_occupancy
  _atom_site_fract_x
  _atom_site_fract_y
  _atom_site_fract_z
  _atom_site_thermal_displace_type
  _atom_site_B_iso_or_equiv
  _atom_site_type_symbol
  Ca1      1.0000 0.40770  0.05039  0.31426  Biso   1.000  Ca
  Ca2      1.0000 0.90770  0.94961  0.18574  Biso   1.000  Ca
  Ca3      1.0000 0.59230  0.94961  0.68574  Biso   1.000  Ca
  Ca4      1.0000 0.09230  0.05039  0.81426  Biso   1.000  Ca
  Ca5      1.0000 0.87894  0.18218  0.40025  Biso   1.000  Ca
  Ca6      1.0000 0.37894  0.81782  0.09975  Biso   1.000  Ca
  Ca7      1.0000 0.12106  0.81782  0.59975  Biso   1.000  Ca
  Ca8      1.0000 0.62106  0.18218  0.90025  Biso   1.000  Ca
  Ca9      1.0000 0.15147  0.46413  0.17139  Biso   1.000  Ca
  Ca10     1.0000 0.65147  0.53587  0.32861  Biso   1.000  Ca
  Ca11     1.0000 0.84853  0.53587  0.82861  Biso   1.000  Ca
  Ca12     1.0000 0.34853  0.46413  0.67139  Biso   1.000  Ca
  Al1      1.0000 0.35759  0.25792  0.48839  Biso   1.000  Al
  Al2      1.0000 0.85759  0.74208  0.01161  Biso   1.000  Al
  Al3      1.0000 0.64241  0.74208  0.51161  Biso   1.000  Al
  Al4      1.0000 0.14241  0.25792  0.98839  Biso   1.000  Al
  Al5      1.0000 0.11026  0.61958  0.39164  Biso   1.000  Al
  Al6      1.0000 0.61026  0.38042  0.10836  Biso   1.000  Al
  Al7      1.0000 0.88974  0.38042  0.60836  Biso   1.000  Al
  Al8      1.0000 0.38974  0.61958  0.89164  Biso   1.000  Al
  N1       1.0000 0.26246  0.06120  0.06350  Biso   1.000  N 
  N2       1.0000 0.76246  0.93880  0.43650  Biso   1.000  N 
  N3       1.0000 0.73754  0.93880  0.93650  Biso   1.000  N 
  N4       1.0000 0.23754  0.06120  0.56350  Biso   1.000  N 
  N5       1.0000 0.48861  0.29979  0.29789  Biso   1.000  N 
  N6       1.0000 0.98861  0.70021  0.20211  Biso   1.000  N 
  N7       1.0000 0.51139  0.70021  0.70211  Biso   1.000  N 
  N8       1.0000 0.01139  0.29979  0.79789  Biso   1.000  N 
  N9       1.0000 0.10475  0.39993  0.44738  Biso   1.000  N 
  N10      1.0000 0.60475  0.60007  0.05262  Biso   1.000  N 
  N11      1.0000 0.89525  0.60007  0.55262  Biso   1.000  N 
  N12      1.0000 0.39525  0.39993  0.94738  Biso   1.000  N 
  N13      1.0000 0.40011  0.70538  0.39397  Biso   1.000  N 
  N14      1.0000 0.90011  0.29462  0.10603  Biso   1.000  N 
  N15      1.0000 0.59989  0.29462  0.60603  Biso   1.000  N 
  N16      1.0000 0.09989  0.70538  0.89397  Biso   1.000  N 
