data_image0
_cell_length_a       7.49233
_cell_length_b       6.78311
_cell_length_c       13.462
_cell_angle_alpha    82.2933
_cell_angle_beta     90
_cell_angle_gamma    90

_symmetry_space_group_name_H-M    "P 1"
_symmetry_int_tables_number       1

loop_
  _symmetry_equiv_pos_as_xyz
  'x, y, z'

loop_
  _atom_site_label
  _atom_site_occupancy
  _atom_site_fract_x
  _atom_site_fract_y
  _atom_site_fract_z
  _atom_site_thermal_displace_type
  _atom_site_B_iso_or_equiv
  _atom_site_type_symbol
  Pd1      1.0000 0.50000  0.00000  0.50000  Biso   1.000  Pd
  Pd2      1.0000 0.00000  0.00000  0.00000  Biso   1.000  Pd
  Al1      1.0000 0.77950  0.33549  0.39840  Biso   1.000  Al
  Al2      1.0000 0.27950  0.66451  0.10160  Biso   1.000  Al
  Al3      1.0000 0.22050  0.66451  0.60160  Biso   1.000  Al
  Al4      1.0000 0.72050  0.33549  0.89840  Biso   1.000  Al
  Cl1      1.0000 0.76898  0.13605  0.54506  Biso   1.000  Cl
  Cl2      1.0000 0.26898  0.86395  0.95494  Biso   1.000  Cl
  Cl3      1.0000 0.23102  0.86395  0.45494  Biso   1.000  Cl
  Cl4      1.0000 0.73102  0.13605  0.04506  Biso   1.000  Cl
  Cl5      1.0000 0.50895  0.23242  0.35556  Biso   1.000  Cl
  Cl6      1.0000 0.00895  0.76758  0.14444  Biso   1.000  Cl
  Cl7      1.0000 0.49105  0.76758  0.64444  Biso   1.000  Cl
  Cl8      1.0000 0.99105  0.23242  0.85556  Biso   1.000  Cl
  Cl9      1.0000 0.97391  0.25041  0.29986  Biso   1.000  Cl
  Cl10     1.0000 0.47391  0.74959  0.20014  Biso   1.000  Cl
  Cl11     1.0000 0.02609  0.74959  0.70014  Biso   1.000  Cl
  Cl12     1.0000 0.52609  0.25041  0.79986  Biso   1.000  Cl
  Cl13     1.0000 0.78486  0.63618  0.42269  Biso   1.000  Cl
  Cl14     1.0000 0.28486  0.36382  0.07731  Biso   1.000  Cl
  Cl15     1.0000 0.21514  0.36382  0.57731  Biso   1.000  Cl
  Cl16     1.0000 0.71514  0.63618  0.92269  Biso   1.000  Cl
