data_image0
_cell_length_a       7.3258
_cell_length_b       7.3258
_cell_length_c       7.3258
_cell_angle_alpha    60
_cell_angle_beta     60
_cell_angle_gamma    60

_symmetry_space_group_name_H-M    "P 1"
_symmetry_int_tables_number       1

loop_
  _symmetry_equiv_pos_as_xyz
  'x, y, z'

loop_
  _atom_site_label
  _atom_site_occupancy
  _atom_site_fract_x
  _atom_site_fract_y
  _atom_site_fract_z
  _atom_site_thermal_displace_type
  _atom_site_B_iso_or_equiv
  _atom_site_type_symbol
  Cd1      1.0000 0.50000  0.50000  0.50000  Biso   1.000  Cd
  Cd2      1.0000 0.75000  0.75000  0.75000  Biso   1.000  Cd
  Al1      1.0000 0.62500  0.12500  0.12500  Biso   1.000  Al
  Al2      1.0000 0.12500  0.62500  0.12500  Biso   1.000  Al
  Al3      1.0000 0.12500  0.12500  0.62500  Biso   1.000  Al
  Al4      1.0000 0.12500  0.12500  0.12500  Biso   1.000  Al
  S1       1.0000 0.91908  0.36031  0.36031  Biso   1.000  S 
  S2       1.0000 0.36031  0.91908  0.36031  Biso   1.000  S 
  S3       1.0000 0.36031  0.36031  0.91908  Biso   1.000  S 
  S4       1.0000 0.36031  0.36031  0.36031  Biso   1.000  S 
  S5       1.0000 0.33092  0.88969  0.88969  Biso   1.000  S 
  S6       1.0000 0.88969  0.33092  0.88969  Biso   1.000  S 
  S7       1.0000 0.88969  0.88969  0.33092  Biso   1.000  S 
  S8       1.0000 0.88969  0.88969  0.88969  Biso   1.000  S 
