data_image0
_cell_length_a       9.62815
_cell_length_b       9.62815
_cell_length_c       11.7547
_cell_angle_alpha    54.734
_cell_angle_beta     54.734
_cell_angle_gamma    49.8765

_symmetry_space_group_name_H-M    "P 1"
_symmetry_int_tables_number       1

loop_
  _symmetry_equiv_pos_as_xyz
  'x, y, z'

loop_
  _atom_site_label
  _atom_site_occupancy
  _atom_site_fract_x
  _atom_site_fract_y
  _atom_site_fract_z
  _atom_site_thermal_displace_type
  _atom_site_B_iso_or_equiv
  _atom_site_type_symbol
  V1       1.0000 0.99982  0.00018  0.25000  Biso   1.000  V 
  V2       1.0000 0.00018  0.99982  0.75000  Biso   1.000  V 
  Al1      1.0000 0.66750  0.16012  0.53282  Biso   1.000  Al
  Al2      1.0000 0.16012  0.66750  0.03282  Biso   1.000  Al
  Al3      1.0000 0.33250  0.83988  0.46718  Biso   1.000  Al
  Al4      1.0000 0.83988  0.33250  0.96718  Biso   1.000  Al
  Cl1      1.0000 0.37698  0.30945  0.55101  Biso   1.000  Cl
  Cl2      1.0000 0.30945  0.37698  0.05101  Biso   1.000  Cl
  Cl3      1.0000 0.62302  0.69055  0.44899  Biso   1.000  Cl
  Cl4      1.0000 0.69055  0.62302  0.94899  Biso   1.000  Cl
  Cl5      1.0000 0.68431  0.14569  0.71741  Biso   1.000  Cl
  Cl6      1.0000 0.14569  0.68431  0.21741  Biso   1.000  Cl
  Cl7      1.0000 0.31569  0.85431  0.28259  Biso   1.000  Cl
  Cl8      1.0000 0.85431  0.31569  0.78259  Biso   1.000  Cl
  Cl9      1.0000 0.84221  0.28738  0.32239  Biso   1.000  Cl
  Cl10     1.0000 0.28738  0.84221  0.82239  Biso   1.000  Cl
  Cl11     1.0000 0.15779  0.71262  0.67761  Biso   1.000  Cl
  Cl12     1.0000 0.71262  0.15779  0.17761  Biso   1.000  Cl
  Cl13     1.0000 0.82120  0.87251  0.52022  Biso   1.000  Cl
  Cl14     1.0000 0.87251  0.82120  0.02022  Biso   1.000  Cl
  Cl15     1.0000 0.17880  0.12749  0.47978  Biso   1.000  Cl
  Cl16     1.0000 0.12749  0.17880  0.97978  Biso   1.000  Cl
