data_image0
_cell_length_a       6.76544
_cell_length_b       7.51199
_cell_length_c       12.4684
_cell_angle_alpha    89.9906
_cell_angle_beta     85.2682
_cell_angle_gamma    89.8936

_symmetry_space_group_name_H-M    "P 1"
_symmetry_int_tables_number       1

loop_
  _symmetry_equiv_pos_as_xyz
  'x, y, z'

loop_
  _atom_site_label
  _atom_site_occupancy
  _atom_site_fract_x
  _atom_site_fract_y
  _atom_site_fract_z
  _atom_site_thermal_displace_type
  _atom_site_B_iso_or_equiv
  _atom_site_type_symbol
  Cu1      1.0000 0.00000  0.00000  0.00000  Biso   1.000  Cu
  Cu2      1.0000 0.00000  0.50000  0.50000  Biso   1.000  Cu
  Al1      1.0000 0.18987  0.73626  0.81938  Biso   1.000  Al
  Al2      1.0000 0.81013  0.26374  0.18062  Biso   1.000  Al
  Al3      1.0000 0.81030  0.23695  0.68068  Biso   1.000  Al
  Al4      1.0000 0.18970  0.76305  0.31932  Biso   1.000  Al
  Cl1      1.0000 0.89147  0.75720  0.90810  Biso   1.000  Cl
  Cl2      1.0000 0.10853  0.24280  0.09190  Biso   1.000  Cl
  Cl3      1.0000 0.29507  0.98599  0.89216  Biso   1.000  Cl
  Cl4      1.0000 0.70493  0.01401  0.10784  Biso   1.000  Cl
  Cl5      1.0000 0.16411  0.76871  0.65180  Biso   1.000  Cl
  Cl6      1.0000 0.83589  0.23129  0.34820  Biso   1.000  Cl
  Cl7      1.0000 0.35556  0.51523  0.86277  Biso   1.000  Cl
  Cl8      1.0000 0.64444  0.48477  0.13723  Biso   1.000  Cl
  Cl9      1.0000 0.10883  0.25727  0.59215  Biso   1.000  Cl
  Cl10     1.0000 0.89117  0.74273  0.40785  Biso   1.000  Cl
  Cl11     1.0000 0.70496  0.48685  0.60787  Biso   1.000  Cl
  Cl12     1.0000 0.29504  0.51315  0.39213  Biso   1.000  Cl
  Cl13     1.0000 0.83592  0.26897  0.84824  Biso   1.000  Cl
  Cl14     1.0000 0.16408  0.73103  0.15176  Biso   1.000  Cl
  Cl15     1.0000 0.64504  0.01639  0.63712  Biso   1.000  Cl
  Cl16     1.0000 0.35496  0.98361  0.36288  Biso   1.000  Cl
