data_image0
_cell_length_a       8.97778
_cell_length_b       8.97778
_cell_length_c       8.97778
_cell_angle_alpha    120.611
_cell_angle_beta     120.611
_cell_angle_gamma    88.9456

_symmetry_space_group_name_H-M    "P 1"
_symmetry_int_tables_number       1

loop_
  _symmetry_equiv_pos_as_xyz
  'x, y, z'

loop_
  _atom_site_label
  _atom_site_occupancy
  _atom_site_fract_x
  _atom_site_fract_y
  _atom_site_fract_z
  _atom_site_thermal_displace_type
  _atom_site_B_iso_or_equiv
  _atom_site_type_symbol
  Nb1      1.0000 0.00000  0.00000  0.00000  Biso   1.000  Nb
  Nb2      1.0000 0.68462  0.68462  0.00000  Biso   1.000  Nb
  Nb3      1.0000 0.31538  0.31538  0.00000  Biso   1.000  Nb
  Nb4      1.0000 0.99904  0.99904  0.32305  Biso   1.000  Nb
  Nb5      1.0000 0.67599  0.67599  0.67695  Biso   1.000  Nb
  Nb6      1.0000 0.99904  0.67599  0.00000  Biso   1.000  Nb
  Nb7      1.0000 0.67599  0.99904  0.00000  Biso   1.000  Nb
  Nb8      1.0000 0.00096  0.00096  0.67695  Biso   1.000  Nb
  Nb9      1.0000 0.32401  0.32401  0.32305  Biso   1.000  Nb
  Nb10     1.0000 0.00096  0.32401  0.00000  Biso   1.000  Nb
  Nb11     1.0000 0.32401  0.00096  0.00000  Biso   1.000  Nb
  Al1      1.0000 0.25000  0.75000  0.50000  Biso   1.000  Al
  Al2      1.0000 0.75000  0.25000  0.50000  Biso   1.000  Al
  K1       1.0000 0.80873  0.50000  0.30873  Biso   1.000  K 
  K2       1.0000 0.19127  0.50000  0.69127  Biso   1.000  K 
  K3       1.0000 0.50000  0.19127  0.69127  Biso   1.000  K 
  K4       1.0000 0.50000  0.80873  0.30873  Biso   1.000  K 
  O1       1.0000 0.50929  0.50929  0.66922  Biso   1.000  O 
  O2       1.0000 0.84008  0.84008  0.33078  Biso   1.000  O 
  O3       1.0000 0.50929  0.84008  0.00000  Biso   1.000  O 
  O4       1.0000 0.84008  0.50929  0.00000  Biso   1.000  O 
  O5       1.0000 0.49071  0.49071  0.33078  Biso   1.000  O 
  O6       1.0000 0.15992  0.15992  0.66922  Biso   1.000  O 
  O7       1.0000 0.49071  0.15992  0.00000  Biso   1.000  O 
  O8       1.0000 0.15992  0.49071  0.00000  Biso   1.000  O 
  O9       1.0000 0.17324  0.83394  0.33930  Biso   1.000  O 
  O10      1.0000 0.49464  0.83394  0.66070  Biso   1.000  O 
  O11      1.0000 0.83394  0.49464  0.66070  Biso   1.000  O 
  O12      1.0000 0.83394  0.17324  0.33930  Biso   1.000  O 
  O13      1.0000 0.82676  0.16606  0.66070  Biso   1.000  O 
  O14      1.0000 0.50536  0.16606  0.33930  Biso   1.000  O 
  O15      1.0000 0.16606  0.50536  0.33930  Biso   1.000  O 
  O16      1.0000 0.16606  0.82676  0.66070  Biso   1.000  O 
  O17      1.0000 0.83014  0.16986  0.00000  Biso   1.000  O 
  O18      1.0000 0.16986  0.83014  0.00000  Biso   1.000  O 
  O19      1.0000 0.83014  0.83014  0.66028  Biso   1.000  O 
  O20      1.0000 0.16986  0.16986  0.33972  Biso   1.000  O 
  F1       1.0000 0.50000  0.50000  0.00000  Biso   1.000  F 
