data_image0
_cell_length_a       5.01438
_cell_length_b       7.66125
_cell_length_c       8.72607
_cell_angle_alpha    65.6049
_cell_angle_beta     90.0491
_cell_angle_gamma    88.973

_symmetry_space_group_name_H-M    "P 1"
_symmetry_int_tables_number       1

loop_
  _symmetry_equiv_pos_as_xyz
  'x, y, z'

loop_
  _atom_site_label
  _atom_site_occupancy
  _atom_site_fract_x
  _atom_site_fract_y
  _atom_site_fract_z
  _atom_site_thermal_displace_type
  _atom_site_B_iso_or_equiv
  _atom_site_type_symbol
  Si1      1.0000 0.36261  0.98197  0.52380  Biso   1.000  Si
  Si2      1.0000 0.88719  0.95093  0.01577  Biso   1.000  Si
  Si3      1.0000 0.42501  0.56135  0.78969  Biso   1.000  Si
  Si4      1.0000 0.92384  0.54449  0.00637  Biso   1.000  Si
  Al1      1.0000 0.38295  0.13351  0.80931  Biso   1.000  Al
  Al2      1.0000 0.86329  0.11478  0.28558  Biso   1.000  Al
  O1       1.0000 0.03958  0.08179  0.83913  Biso   1.000  O 
  O2       1.0000 0.49915  0.07164  0.64590  Biso   1.000  O 
  O3       1.0000 0.43848  0.37930  0.73959  Biso   1.000  O 
  O4       1.0000 0.56594  0.99949  0.99591  Biso   1.000  O 
  O5       1.0000 0.54963  0.01254  0.36222  Biso   1.000  O 
  O6       1.0000 0.94374  0.72521  0.05885  Biso   1.000  O 
  O7       1.0000 0.31839  0.75147  0.63005  Biso   1.000  O 
  O8       1.0000 0.06722  0.08128  0.46231  Biso   1.000  O 
  O9       1.0000 0.22038  0.50631  0.94766  Biso   1.000  O 
  O10      1.0000 0.00791  0.98994  0.17291  Biso   1.000  O 
  O11      1.0000 0.82076  0.36117  0.16603  Biso   1.000  O 
  O12      1.0000 0.71810  0.60424  0.84611  Biso   1.000  O 
  O13      1.0000 0.69788  0.43191  0.50997  Biso   1.000  O 
  O14      1.0000 0.47867  0.59900  0.31934  Biso   1.000  O 
  Li1      1.0000 0.87034  0.14867  0.61956  Biso   1.000  Li
  Li2      1.0000 0.38606  0.88213  0.22715  Biso   1.000  Li
  H1       1.0000 0.58735  0.54087  0.25749  Biso   1.000  H 
