data_image0
_cell_length_a       5.2124
_cell_length_b       5.21094
_cell_length_c       7.47335
_cell_angle_alpha    75.1089
_cell_angle_beta     84.3318
_cell_angle_gamma    60.2972

_symmetry_space_group_name_H-M    "P 1"
_symmetry_int_tables_number       1

loop_
  _symmetry_equiv_pos_as_xyz
  'x, y, z'

loop_
  _atom_site_label
  _atom_site_occupancy
  _atom_site_fract_x
  _atom_site_fract_y
  _atom_site_fract_z
  _atom_site_thermal_displace_type
  _atom_site_B_iso_or_equiv
  _atom_site_type_symbol
  Si1      1.0000 0.67745  0.66325  0.09392  Biso   1.000  Si
  Si2      1.0000 0.33469  0.32069  0.09526  Biso   1.000  Si
  Al1      1.0000 0.99092  0.20461  0.47913  Biso   1.000  Al
  Al2      1.0000 0.66238  0.87616  0.47671  Biso   1.000  Al
  O1       1.0000 0.70581  0.59548  0.31711  Biso   1.000  O 
  O2       1.0000 0.32744  0.21491  0.31829  Biso   1.000  O 
  O3       1.0000 0.00013  0.50116  0.00043  Biso   1.000  O 
  O4       1.0000 0.46759  0.55475  0.02202  Biso   1.000  O 
  O5       1.0000 0.52721  0.03134  0.00024  Biso   1.000  O 
  O6       1.0000 0.93954  0.98025  0.32806  Biso   1.000  O 
  O7       1.0000 0.33562  0.87662  0.60479  Biso   1.000  O 
  O8       1.0000 0.94778  0.48929  0.60410  Biso   1.000  O 
  O9       1.0000 0.71990  0.10094  0.61198  Biso   1.000  O 
  H1       1.0000 0.12598  0.79369  0.32926  Biso   1.000  H 
  H2       1.0000 0.34547  0.76550  0.73217  Biso   1.000  H 
  H3       1.0000 0.00636  0.44894  0.73209  Biso   1.000  H 
  H4       1.0000 0.63775  0.13371  0.73156  Biso   1.000  H 
