data_image0
_cell_length_a       5.20667
_cell_length_b       7.46678
_cell_length_c       9.07431
_cell_angle_alpha    87.95
_cell_angle_beta     89.7651
_cell_angle_gamma    74.9947

_symmetry_space_group_name_H-M    "P 1"
_symmetry_int_tables_number       1

loop_
  _symmetry_equiv_pos_as_xyz
  'x, y, z'

loop_
  _atom_site_label
  _atom_site_occupancy
  _atom_site_fract_x
  _atom_site_fract_y
  _atom_site_fract_z
  _atom_site_thermal_displace_type
  _atom_site_B_iso_or_equiv
  _atom_site_type_symbol
  Al1      1.0000 0.36059  0.54113  0.49345  Biso   1.000  Al
  Al2      1.0000 0.35456  0.54359  0.82891  Biso   1.000  Al
  Al3      1.0000 0.86234  0.54078  0.99367  Biso   1.000  Al
  Al4      1.0000 0.85322  0.54374  0.32895  Biso   1.000  Al
  Si1      1.0000 0.05803  0.92700  0.33647  Biso   1.000  Si
  Si2      1.0000 0.07291  0.92566  0.66457  Biso   1.000  Si
  Si3      1.0000 0.55862  0.92693  0.83636  Biso   1.000  Si
  Si4      1.0000 0.57255  0.92568  0.16461  Biso   1.000  Si
  O1       1.0000 0.11088  0.70366  0.35131  Biso   1.000  O 
  O2       1.0000 0.18351  0.70247  0.66137  Biso   1.000  O 
  O3       1.0000 0.05896  0.02072  0.49745  Biso   1.000  O 
  O4       1.0000 0.27143  0.99780  0.23088  Biso   1.000  O 
  O5       1.0000 0.26569  0.02115  0.76049  Biso   1.000  O 
  O6       1.0000 0.61207  0.70351  0.85121  Biso   1.000  O 
  O7       1.0000 0.68366  0.70248  0.16124  Biso   1.000  O 
  O8       1.0000 0.55850  0.02058  0.99747  Biso   1.000  O 
  O9       1.0000 0.77185  0.99806  0.73095  Biso   1.000  O 
  O10      1.0000 0.76518  0.02139  0.26047  Biso   1.000  O 
  O11      1.0000 0.11075  0.69241  0.96688  Biso   1.000  O 
  O12      1.0000 0.01642  0.41449  0.16628  Biso   1.000  O 
  O13      1.0000 0.09737  0.41621  0.47187  Biso   1.000  O 
  O14      1.0000 0.10198  0.40824  0.85847  Biso   1.000  O 
  O15      1.0000 0.60928  0.69269  0.46668  Biso   1.000  O 
  O16      1.0000 0.51611  0.41483  0.66566  Biso   1.000  O 
  O17      1.0000 0.60006  0.41536  0.97089  Biso   1.000  O 
  O18      1.0000 0.60008  0.40857  0.35806  Biso   1.000  O 
  H1       1.0000 0.20414  0.69546  0.05912  Biso   1.000  H 
  H2       1.0000 0.11803  0.28558  0.17180  Biso   1.000  H 
  H3       1.0000 0.10713  0.28841  0.50168  Biso   1.000  H 
  H4       1.0000 0.10750  0.29026  0.81537  Biso   1.000  H 
  H5       1.0000 0.70279  0.69411  0.55920  Biso   1.000  H 
  H6       1.0000 0.62031  0.28658  0.67065  Biso   1.000  H 
  H7       1.0000 0.60869  0.28796  0.00144  Biso   1.000  H 
  H8       1.0000 0.60583  0.29052  0.31513  Biso   1.000  H 
