data_image0
_cell_length_a       6.45496
_cell_length_b       6.45496
_cell_length_c       6.45496
_cell_angle_alpha    128.694
_cell_angle_beta     128.694
_cell_angle_gamma    75.5041

_symmetry_space_group_name_H-M    "P 1"
_symmetry_int_tables_number       1

loop_
  _symmetry_equiv_pos_as_xyz
  'x, y, z'

loop_
  _atom_site_label
  _atom_site_occupancy
  _atom_site_fract_x
  _atom_site_fract_y
  _atom_site_fract_z
  _atom_site_thermal_displace_type
  _atom_site_B_iso_or_equiv
  _atom_site_type_symbol
  Hg1      1.0000 0.00000  0.00000  0.00000  Biso   1.000  Hg
  Al1      1.0000 0.50000  0.50000  0.00000  Biso   1.000  Al
  Al2      1.0000 0.75000  0.25000  0.50000  Biso   1.000  Al
  S1       1.0000 0.13250  0.58605  0.99278  Biso   1.000  S 
  S2       1.0000 0.59326  0.13972  0.00722  Biso   1.000  S 
  S3       1.0000 0.86028  0.86750  0.45354  Biso   1.000  S 
  S4       1.0000 0.41395  0.40674  0.54646  Biso   1.000  S 
