data_image0
_cell_length_a       7.41426
_cell_length_b       7.41426
_cell_length_c       7.41426
_cell_angle_alpha    129.44
_cell_angle_beta     129.44
_cell_angle_gamma    74.3041

_symmetry_space_group_name_H-M    "P 1"
_symmetry_int_tables_number       1

loop_
  _symmetry_equiv_pos_as_xyz
  'x, y, z'

loop_
  _atom_site_label
  _atom_site_occupancy
  _atom_site_fract_x
  _atom_site_fract_y
  _atom_site_fract_z
  _atom_site_thermal_displace_type
  _atom_site_B_iso_or_equiv
  _atom_site_type_symbol
  Hg1      1.0000 0.00000  0.00000  0.00000  Biso   1.000  Hg
  Al1      1.0000 0.50000  0.50000  0.00000  Biso   1.000  Al
  Al2      1.0000 0.75000  0.25000  0.50000  Biso   1.000  Al
  Te1      1.0000 0.13475  0.60433  0.01570  Biso   1.000  Te
  Te2      1.0000 0.58862  0.11904  0.98430  Biso   1.000  Te
  Te3      1.0000 0.88096  0.86525  0.46958  Biso   1.000  Te
  Te4      1.0000 0.39567  0.41138  0.53042  Biso   1.000  Te
