data_image0
_cell_length_a       12.7747
_cell_length_b       12.7747
_cell_length_c       12.7747
_cell_angle_alpha    16.7475
_cell_angle_beta     16.7475
_cell_angle_gamma    16.7475

_symmetry_space_group_name_H-M    "P 1"
_symmetry_int_tables_number       1

loop_
  _symmetry_equiv_pos_as_xyz
  'x, y, z'

loop_
  _atom_site_label
  _atom_site_occupancy
  _atom_site_fract_x
  _atom_site_fract_y
  _atom_site_fract_z
  _atom_site_thermal_displace_type
  _atom_site_B_iso_or_equiv
  _atom_site_type_symbol
  Mg1      1.0000 0.00058  0.00058  0.00058  Biso   1.000  Mg
  Al1      1.0000 0.76105  0.76105  0.76105  Biso   1.000  Al
  Al2      1.0000 0.24009  0.24009  0.24009  Biso   1.000  Al
  S1       1.0000 0.88132  0.88132  0.88132  Biso   1.000  S 
  S2       1.0000 0.11982  0.11982  0.11982  Biso   1.000  S 
  S3       1.0000 0.29754  0.29754  0.29754  Biso   1.000  S 
  S4       1.0000 0.70361  0.70361  0.70361  Biso   1.000  S 
