data_image0
_cell_length_a       12.8331
_cell_length_b       12.8331
_cell_length_c       12.8331
_cell_angle_alpha    16.6557
_cell_angle_beta     16.6557
_cell_angle_gamma    16.6557

_symmetry_space_group_name_H-M    "P 1"
_symmetry_int_tables_number       1

loop_
  _symmetry_equiv_pos_as_xyz
  'x, y, z'

loop_
  _atom_site_label
  _atom_site_occupancy
  _atom_site_fract_x
  _atom_site_fract_y
  _atom_site_fract_z
  _atom_site_thermal_displace_type
  _atom_site_B_iso_or_equiv
  _atom_site_type_symbol
  Mg1      1.0000 0.00000  0.00000  0.00000  Biso   1.000  Mg
  Al1      1.0000 0.75998  0.75998  0.75998  Biso   1.000  Al
  Al2      1.0000 0.24002  0.24002  0.24002  Biso   1.000  Al
  S1       1.0000 0.88135  0.88135  0.88135  Biso   1.000  S 
  S2       1.0000 0.11865  0.11865  0.11865  Biso   1.000  S 
  S3       1.0000 0.70281  0.70281  0.70281  Biso   1.000  S 
  S4       1.0000 0.29719  0.29719  0.29719  Biso   1.000  S 
