data_image0
_cell_length_a       7.56523
_cell_length_b       7.56523
_cell_length_c       7.56523
_cell_angle_alpha    133.015
_cell_angle_beta     133.015
_cell_angle_gamma    68.6309

_symmetry_space_group_name_H-M    "P 1"
_symmetry_int_tables_number       1

loop_
  _symmetry_equiv_pos_as_xyz
  'x, y, z'

loop_
  _atom_site_label
  _atom_site_occupancy
  _atom_site_fract_x
  _atom_site_fract_y
  _atom_site_fract_z
  _atom_site_thermal_displace_type
  _atom_site_B_iso_or_equiv
  _atom_site_type_symbol
  Al1      1.0000 0.25000  0.75000  0.50000  Biso   1.000  Al
  Al2      1.0000 0.75000  0.25000  0.50000  Biso   1.000  Al
  Mn1      1.0000 0.00000  0.00000  0.00000  Biso   1.000  Mn
  Te1      1.0000 0.84948  0.84948  0.45420  Biso   1.000  Te
  Te2      1.0000 0.39528  0.39528  0.54580  Biso   1.000  Te
  Te3      1.0000 0.60472  0.15052  0.00000  Biso   1.000  Te
  Te4      1.0000 0.15052  0.60472  0.00000  Biso   1.000  Te
