data_image0
_cell_length_a       13.2412
_cell_length_b       13.2412
_cell_length_c       13.2412
_cell_angle_alpha    16.9602
_cell_angle_beta     16.9602
_cell_angle_gamma    16.9602

_symmetry_space_group_name_H-M    "P 1"
_symmetry_int_tables_number       1

loop_
  _symmetry_equiv_pos_as_xyz
  'x, y, z'

loop_
  _atom_site_label
  _atom_site_occupancy
  _atom_site_fract_x
  _atom_site_fract_y
  _atom_site_fract_z
  _atom_site_thermal_displace_type
  _atom_site_B_iso_or_equiv
  _atom_site_type_symbol
  Se1      1.0000 0.04460  0.04460  0.04460  Biso   1.000  Se
  Se2      1.0000 0.29052  0.29052  0.29052  Biso   1.000  Se
  Se3      1.0000 0.46435  0.46435  0.46435  Biso   1.000  Se
  Se4      1.0000 0.87080  0.87080  0.87080  Biso   1.000  Se
  Al1      1.0000 0.92975  0.92975  0.92975  Biso   1.000  Al
  Al2      1.0000 0.40539  0.40539  0.40539  Biso   1.000  Al
  Mg1      1.0000 0.16759  0.16759  0.16759  Biso   1.000  Mg
