data_image0
_cell_length_a       5.86636
_cell_length_b       5.86636
_cell_length_c       5.86636
_cell_angle_alpha    60
_cell_angle_beta     60
_cell_angle_gamma    60

_symmetry_space_group_name_H-M    "P 1"
_symmetry_int_tables_number       1

loop_
  _symmetry_equiv_pos_as_xyz
  'x, y, z'

loop_
  _atom_site_label
  _atom_site_occupancy
  _atom_site_fract_x
  _atom_site_fract_y
  _atom_site_fract_z
  _atom_site_thermal_displace_type
  _atom_site_B_iso_or_equiv
  _atom_site_type_symbol
  Mn1      1.0000 0.50000  0.50000  0.50000  Biso   1.000  Mn
  Mn2      1.0000 0.25000  0.25000  0.25000  Biso   1.000  Mn
  Al1      1.0000 0.87500  0.87500  0.37500  Biso   1.000  Al
  Al2      1.0000 0.37500  0.87500  0.87500  Biso   1.000  Al
  Al3      1.0000 0.87500  0.87500  0.87500  Biso   1.000  Al
  Al4      1.0000 0.87500  0.37500  0.87500  Biso   1.000  Al
  O1       1.0000 0.64156  0.64156  0.07531  Biso   1.000  O 
  O2       1.0000 0.07531  0.64156  0.64156  Biso   1.000  O 
  O3       1.0000 0.64156  0.64156  0.64156  Biso   1.000  O 
  O4       1.0000 0.64156  0.07531  0.64156  Biso   1.000  O 
  O5       1.0000 0.10844  0.10844  0.67469  Biso   1.000  O 
  O6       1.0000 0.67469  0.10844  0.10844  Biso   1.000  O 
  O7       1.0000 0.10844  0.10844  0.10844  Biso   1.000  O 
  O8       1.0000 0.10844  0.67469  0.10844  Biso   1.000  O 
