data_image0
_cell_length_a       5.9374
_cell_length_b       9.60463
_cell_length_c       10.0469
_cell_angle_alpha    90
_cell_angle_beta     90
_cell_angle_gamma    90

_symmetry_space_group_name_H-M    "P 1"
_symmetry_int_tables_number       1

loop_
  _symmetry_equiv_pos_as_xyz
  'x, y, z'

loop_
  _atom_site_label
  _atom_site_occupancy
  _atom_site_fract_x
  _atom_site_fract_y
  _atom_site_fract_z
  _atom_site_thermal_displace_type
  _atom_site_B_iso_or_equiv
  _atom_site_type_symbol
  Sr1      1.0000 0.61678  0.41493  0.15521  Biso   1.000  Sr
  Sr2      1.0000 0.88322  0.41493  0.84479  Biso   1.000  Sr
  Sr3      1.0000 0.61678  0.08507  0.34479  Biso   1.000  Sr
  Sr4      1.0000 0.88322  0.08507  0.65521  Biso   1.000  Sr
  Sr5      1.0000 0.38322  0.58507  0.84479  Biso   1.000  Sr
  Sr6      1.0000 0.11678  0.58507  0.15521  Biso   1.000  Sr
  Sr7      1.0000 0.38322  0.91493  0.65521  Biso   1.000  Sr
  Sr8      1.0000 0.11678  0.91493  0.34479  Biso   1.000  Sr
  Sr9      1.0000 0.75000  0.40547  0.50000  Biso   1.000  Sr
  Sr10     1.0000 0.75000  0.09453  0.00000  Biso   1.000  Sr
  Sr11     1.0000 0.25000  0.59453  0.50000  Biso   1.000  Sr
  Sr12     1.0000 0.25000  0.90547  0.00000  Biso   1.000  Sr
  Al1      1.0000 0.75000  0.73032  0.50000  Biso   1.000  Al
  Al2      1.0000 0.75000  0.76968  0.00000  Biso   1.000  Al
  Al3      1.0000 0.25000  0.26968  0.50000  Biso   1.000  Al
  Al4      1.0000 0.25000  0.23032  0.00000  Biso   1.000  Al
  Al5      1.0000 0.66979  0.75000  0.25000  Biso   1.000  Al
  Al6      1.0000 0.83021  0.75000  0.75000  Biso   1.000  Al
  Al7      1.0000 0.33021  0.25000  0.75000  Biso   1.000  Al
  Al8      1.0000 0.16979  0.25000  0.25000  Biso   1.000  Al
  N1       1.0000 0.86935  0.62818  0.35395  Biso   1.000  N 
  N2       1.0000 0.63065  0.62818  0.64605  Biso   1.000  N 
  N3       1.0000 0.86935  0.87182  0.14605  Biso   1.000  N 
  N4       1.0000 0.63065  0.87182  0.85395  Biso   1.000  N 
  N5       1.0000 0.13065  0.37182  0.64605  Biso   1.000  N 
  N6       1.0000 0.36935  0.37182  0.35395  Biso   1.000  N 
  N7       1.0000 0.13065  0.12818  0.85395  Biso   1.000  N 
  N8       1.0000 0.36935  0.12818  0.14605  Biso   1.000  N 
  N9       1.0000 0.51877  0.82945  0.40242  Biso   1.000  N 
  N10      1.0000 0.98123  0.82945  0.59758  Biso   1.000  N 
  N11      1.0000 0.51877  0.67055  0.09758  Biso   1.000  N 
  N12      1.0000 0.98123  0.67055  0.90242  Biso   1.000  N 
  N13      1.0000 0.48123  0.17055  0.59758  Biso   1.000  N 
  N14      1.0000 0.01877  0.17055  0.40242  Biso   1.000  N 
  N15      1.0000 0.48123  0.32945  0.90242  Biso   1.000  N 
  N16      1.0000 0.01877  0.32945  0.09758  Biso   1.000  N 
