data_image0
_cell_length_a       7.07864
_cell_length_b       4.84549
_cell_length_c       4.98911
_cell_angle_alpha    90
_cell_angle_beta     90
_cell_angle_gamma    90

_symmetry_space_group_name_H-M    "P 1"
_symmetry_int_tables_number       1

loop_
  _symmetry_equiv_pos_as_xyz
  'x, y, z'

loop_
  _atom_site_label
  _atom_site_occupancy
  _atom_site_fract_x
  _atom_site_fract_y
  _atom_site_fract_z
  _atom_site_thermal_displace_type
  _atom_site_B_iso_or_equiv
  _atom_site_type_symbol
  Al1      1.0000 0.10974  0.75247  0.03071  Biso   1.000  Al
  Al2      1.0000 0.10974  0.24753  0.53071  Biso   1.000  Al
  Al3      1.0000 0.39026  0.25247  0.03071  Biso   1.000  Al
  Al4      1.0000 0.60974  0.25247  0.46929  Biso   1.000  Al
  Al5      1.0000 0.89026  0.24753  0.96929  Biso   1.000  Al
  Al6      1.0000 0.89026  0.75247  0.46929  Biso   1.000  Al
  Al7      1.0000 0.60974  0.74753  0.96929  Biso   1.000  Al
  Al8      1.0000 0.39026  0.74753  0.53071  Biso   1.000  Al
  O1       1.0000 0.84627  0.60780  0.10115  Biso   1.000  O 
  O2       1.0000 0.84627  0.39220  0.60115  Biso   1.000  O 
  O3       1.0000 0.65372  0.10780  0.10115  Biso   1.000  O 
  O4       1.0000 0.34628  0.10780  0.39885  Biso   1.000  O 
  O5       1.0000 0.15372  0.39220  0.89885  Biso   1.000  O 
  O6       1.0000 0.15372  0.60780  0.39885  Biso   1.000  O 
  O7       1.0000 0.34628  0.89220  0.89885  Biso   1.000  O 
  O8       1.0000 0.65372  0.89220  0.60115  Biso   1.000  O 
  O9       1.0000 0.00000  0.04902  0.25000  Biso   1.000  O 
  O10      1.0000 0.00000  0.95098  0.75000  Biso   1.000  O 
  O11      1.0000 0.50000  0.54902  0.25000  Biso   1.000  O 
  O12      1.0000 0.50000  0.45098  0.75000  Biso   1.000  O 
