data_image0
_cell_length_a       4.69013
_cell_length_b       2.88646
_cell_length_c       6.69909
_cell_angle_alpha    79.946
_cell_angle_beta     94.0048
_cell_angle_gamma    89.475

_symmetry_space_group_name_H-M    "P 1"
_symmetry_int_tables_number       1

loop_
  _symmetry_equiv_pos_as_xyz
  'x, y, z'

loop_
  _atom_site_label
  _atom_site_occupancy
  _atom_site_fract_x
  _atom_site_fract_y
  _atom_site_fract_z
  _atom_site_thermal_displace_type
  _atom_site_B_iso_or_equiv
  _atom_site_type_symbol
  O1       1.0000 0.60383  0.41875  0.06478  Biso   1.000  O 
  O2       1.0000 0.15133  0.89216  0.06534  Biso   1.000  O 
  O3       1.0000 0.79495  0.70156  0.42012  Biso   1.000  O 
  O4       1.0000 0.22888  0.52319  0.74653  Biso   1.000  O 
  O5       1.0000 0.77994  0.03053  0.77409  Biso   1.000  O 
  O6       1.0000 0.29670  0.19133  0.40456  Biso   1.000  O 
  Al1      1.0000 0.96780  0.15595  0.53047  Biso   1.000  Al
  Al2      1.0000 0.44147  0.73237  0.28735  Biso   1.000  Al
  Al3      1.0000 0.43172  0.97416  0.87200  Biso   1.000  Al
  Al4      1.0000 0.94669  0.44859  0.94647  Biso   1.000  Al
