data_image0
_cell_length_a       4.88517
_cell_length_b       8.39314
_cell_length_c       9.02618
_cell_angle_alpha    90
_cell_angle_beta     90
_cell_angle_gamma    90

_symmetry_space_group_name_H-M    "P 1"
_symmetry_int_tables_number       1

loop_
  _symmetry_equiv_pos_as_xyz
  'x, y, z'

loop_
  _atom_site_label
  _atom_site_occupancy
  _atom_site_fract_x
  _atom_site_fract_y
  _atom_site_fract_z
  _atom_site_thermal_displace_type
  _atom_site_B_iso_or_equiv
  _atom_site_type_symbol
  Al1      1.0000 0.68378  0.83994  0.00450  Biso   1.000  Al
  Al2      1.0000 0.18378  0.66006  0.00450  Biso   1.000  Al
  Al3      1.0000 0.81622  0.33994  0.50450  Biso   1.000  Al
  Al4      1.0000 0.31622  0.16006  0.50450  Biso   1.000  Al
  Al5      1.0000 0.18571  0.34622  0.78300  Biso   1.000  Al
  Al6      1.0000 0.68571  0.15378  0.78300  Biso   1.000  Al
  Al7      1.0000 0.31429  0.84622  0.28300  Biso   1.000  Al
  Al8      1.0000 0.81429  0.65378  0.28300  Biso   1.000  Al
  Al9      1.0000 0.82317  0.65244  0.69549  Biso   1.000  Al
  Al10     1.0000 0.32317  0.84756  0.69549  Biso   1.000  Al
  Al11     1.0000 0.67683  0.15244  0.19549  Biso   1.000  Al
  Al12     1.0000 0.17683  0.34756  0.19549  Biso   1.000  Al
  Al13     1.0000 0.67285  0.46889  0.99449  Biso   1.000  Al
  Al14     1.0000 0.17285  0.03111  0.99449  Biso   1.000  Al
  Al15     1.0000 0.82715  0.96889  0.49449  Biso   1.000  Al
  Al16     1.0000 0.32715  0.53111  0.49449  Biso   1.000  Al
  O1       1.0000 0.34355  0.83909  0.89422  Biso   1.000  O 
  O2       1.0000 0.84355  0.66091  0.89422  Biso   1.000  O 
  O3       1.0000 0.15645  0.33909  0.39422  Biso   1.000  O 
  O4       1.0000 0.65645  0.16091  0.39422  Biso   1.000  O 
  O5       1.0000 0.02218  0.48841  0.63007  Biso   1.000  O 
  O6       1.0000 0.52218  0.01159  0.63007  Biso   1.000  O 
  O7       1.0000 0.47782  0.98841  0.13007  Biso   1.000  O 
  O8       1.0000 0.97782  0.51159  0.13007  Biso   1.000  O 
  O9       1.0000 0.48182  0.66866  0.63594  Biso   1.000  O 
  O10      1.0000 0.98182  0.83134  0.63594  Biso   1.000  O 
  O11      1.0000 0.01818  0.16866  0.13594  Biso   1.000  O 
  O12      1.0000 0.51818  0.33134  0.13594  Biso   1.000  O 
  O13      1.0000 0.52110  0.67594  0.12323  Biso   1.000  O 
  O14      1.0000 0.02110  0.82406  0.12323  Biso   1.000  O 
  O15      1.0000 0.97890  0.17594  0.62323  Biso   1.000  O 
  O16      1.0000 0.47890  0.32406  0.62323  Biso   1.000  O 
  O17      1.0000 0.84272  0.33127  0.86841  Biso   1.000  O 
  O18      1.0000 0.34272  0.16873  0.86841  Biso   1.000  O 
  O19      1.0000 0.65728  0.83127  0.36841  Biso   1.000  O 
  O20      1.0000 0.15728  0.66873  0.36841  Biso   1.000  O 
  O21      1.0000 0.34267  0.49872  0.90065  Biso   1.000  O 
  O22      1.0000 0.84267  0.00128  0.90065  Biso   1.000  O 
  O23      1.0000 0.15733  0.99872  0.40065  Biso   1.000  O 
  O24      1.0000 0.65733  0.50128  0.40065  Biso   1.000  O 
