data_image0
_cell_length_a       5.17611
_cell_length_b       5.17611
_cell_length_c       5.17611
_cell_angle_alpha    55.3367
_cell_angle_beta     55.3367
_cell_angle_gamma    55.3367

_symmetry_space_group_name_H-M    "P 1"
_symmetry_int_tables_number       1

loop_
  _symmetry_equiv_pos_as_xyz
  'x, y, z'

loop_
  _atom_site_label
  _atom_site_occupancy
  _atom_site_fract_x
  _atom_site_fract_y
  _atom_site_fract_z
  _atom_site_thermal_displace_type
  _atom_site_B_iso_or_equiv
  _atom_site_type_symbol
  Al1      1.0000 0.85220  0.85220  0.85220  Biso   1.000  Al
  Al2      1.0000 0.35220  0.35220  0.35220  Biso   1.000  Al
  Al3      1.0000 0.14780  0.14780  0.14780  Biso   1.000  Al
  Al4      1.0000 0.64780  0.64780  0.64780  Biso   1.000  Al
  O1       1.0000 0.05660  0.44340  0.75000  Biso   1.000  O 
  O2       1.0000 0.75000  0.05660  0.44340  Biso   1.000  O 
  O3       1.0000 0.44340  0.75000  0.05660  Biso   1.000  O 
  O4       1.0000 0.25000  0.94340  0.55660  Biso   1.000  O 
  O5       1.0000 0.55660  0.25000  0.94340  Biso   1.000  O 
  O6       1.0000 0.94340  0.55660  0.25000  Biso   1.000  O 
