data_image0
_cell_length_a       5.98177
_cell_length_b       5.98177
_cell_length_c       10.4629
_cell_angle_alpha    90
_cell_angle_beta     90
_cell_angle_gamma    120.516

_symmetry_space_group_name_H-M    "P 1"
_symmetry_int_tables_number       1

loop_
  _symmetry_equiv_pos_as_xyz
  'x, y, z'

loop_
  _atom_site_label
  _atom_site_occupancy
  _atom_site_fract_x
  _atom_site_fract_y
  _atom_site_fract_z
  _atom_site_thermal_displace_type
  _atom_site_B_iso_or_equiv
  _atom_site_type_symbol
  Pb1      1.0000 0.50000  0.50000  0.75000  Biso   1.000  Pb
  Pb2      1.0000 0.50000  0.50000  0.25000  Biso   1.000  Pb
  Al1      1.0000 0.76110  0.24011  0.50000  Biso   1.000  Al
  Al2      1.0000 0.23890  0.75989  0.50000  Biso   1.000  Al
  Al3      1.0000 0.75989  0.23890  0.00000  Biso   1.000  Al
  Al4      1.0000 0.24011  0.76110  0.00000  Biso   1.000  Al
  S1       1.0000 0.35001  0.17943  0.50000  Biso   1.000  S 
  S2       1.0000 0.64999  0.82057  0.50000  Biso   1.000  S 
  S3       1.0000 0.82057  0.64999  0.00000  Biso   1.000  S 
  S4       1.0000 0.17943  0.35001  0.00000  Biso   1.000  S 
  S5       1.0000 0.50000  0.00000  0.83459  Biso   1.000  S 
  S6       1.0000 0.00000  0.50000  0.66541  Biso   1.000  S 
  S7       1.0000 0.50000  0.00000  0.16541  Biso   1.000  S 
  S8       1.0000 0.00000  0.50000  0.33459  Biso   1.000  S 
