data_image0
_cell_length_a       10.2165
_cell_length_b       10.2165
_cell_length_c       7.143
_cell_angle_alpha    76.2952
_cell_angle_beta     76.2952
_cell_angle_gamma    60.1064

_symmetry_space_group_name_H-M    "P 1"
_symmetry_int_tables_number       1

loop_
  _symmetry_equiv_pos_as_xyz
  'x, y, z'

loop_
  _atom_site_label
  _atom_site_occupancy
  _atom_site_fract_x
  _atom_site_fract_y
  _atom_site_fract_z
  _atom_site_thermal_displace_type
  _atom_site_B_iso_or_equiv
  _atom_site_type_symbol
  S1       1.0000 0.26055  0.58535  0.74031  Biso   1.000  S 
  S2       1.0000 0.41465  0.73945  0.25969  Biso   1.000  S 
  S3       1.0000 0.91653  0.25980  0.71845  Biso   1.000  S 
  S4       1.0000 0.74020  0.08347  0.28155  Biso   1.000  S 
  S5       1.0000 0.58169  0.93178  0.73321  Biso   1.000  S 
  S6       1.0000 0.06822  0.41831  0.26679  Biso   1.000  S 
  S7       1.0000 0.25624  0.23940  0.73991  Biso   1.000  S 
  S8       1.0000 0.76060  0.74376  0.26009  Biso   1.000  S 
  S9       1.0000 0.60364  0.57337  0.73211  Biso   1.000  S 
  S10      1.0000 0.42663  0.39636  0.26789  Biso   1.000  S 
  S11      1.0000 0.93068  0.91601  0.71863  Biso   1.000  S 
  S12      1.0000 0.08399  0.06932  0.28137  Biso   1.000  S 
  Al1      1.0000 0.83589  0.51227  0.49926  Biso   1.000  Al
  Al2      1.0000 0.48773  0.16411  0.50074  Biso   1.000  Al
  P1       1.0000 0.15591  0.13871  0.65807  Biso   1.000  P 
  P2       1.0000 0.86129  0.84409  0.34193  Biso   1.000  P 
  P3       1.0000 0.48826  0.48481  0.65870  Biso   1.000  P 
  P4       1.0000 0.51519  0.51174  0.34130  Biso   1.000  P 
  P5       1.0000 0.80934  0.81716  0.65904  Biso   1.000  P 
  P6       1.0000 0.18284  0.19066  0.34096  Biso   1.000  P 
  Al3      1.0000 0.18389  0.81611  0.50000  Biso   1.000  Al
  S13      1.0000 0.58694  0.24520  0.71852  Biso   1.000  S 
  S14      1.0000 0.75480  0.41306  0.28148  Biso   1.000  S 
  S15      1.0000 0.91006  0.58920  0.73925  Biso   1.000  S 
  S16      1.0000 0.41080  0.08994  0.26075  Biso   1.000  S 
  S17      1.0000 0.24414  0.91107  0.73228  Biso   1.000  S 
  S18      1.0000 0.08893  0.75586  0.26772  Biso   1.000  S 
  Al4      1.0000 0.83527  0.16473  0.50000  Biso   1.000  Al
