data_image0
_cell_length_a       6.77574
_cell_length_b       11.7898
_cell_length_c       7.39148
_cell_angle_alpha    59.0274
_cell_angle_beta     90
_cell_angle_gamma    90

_symmetry_space_group_name_H-M    "P 1"
_symmetry_int_tables_number       1

loop_
  _symmetry_equiv_pos_as_xyz
  'x, y, z'

loop_
  _atom_site_label
  _atom_site_occupancy
  _atom_site_fract_x
  _atom_site_fract_y
  _atom_site_fract_z
  _atom_site_thermal_displace_type
  _atom_site_B_iso_or_equiv
  _atom_site_type_symbol
  Al1      1.0000 0.40327  0.95866  0.12826  Biso   1.000  Al
  Al2      1.0000 0.59673  0.95866  0.62826  Biso   1.000  Al
  Al3      1.0000 0.09673  0.45866  0.62826  Biso   1.000  Al
  Al4      1.0000 0.90327  0.45866  0.12826  Biso   1.000  Al
  Al5      1.0000 0.93355  0.80012  0.11550  Biso   1.000  Al
  Al6      1.0000 0.06645  0.80012  0.61550  Biso   1.000  Al
  Al7      1.0000 0.56645  0.30012  0.61550  Biso   1.000  Al
  Al8      1.0000 0.43355  0.30012  0.11550  Biso   1.000  Al
  Se1      1.0000 0.08504  0.00546  0.98869  Biso   1.000  Se
  Se2      1.0000 0.91496  0.00546  0.48869  Biso   1.000  Se
  Se3      1.0000 0.41496  0.50546  0.48869  Biso   1.000  Se
  Se4      1.0000 0.58504  0.50546  0.98869  Biso   1.000  Se
  Se5      1.0000 0.58216  0.82425  0.01439  Biso   1.000  Se
  Se6      1.0000 0.41784  0.82425  0.51439  Biso   1.000  Se
  Se7      1.0000 0.91784  0.32425  0.51439  Biso   1.000  Se
  Se8      1.0000 0.08216  0.32425  0.01439  Biso   1.000  Se
  Se9      1.0000 0.09626  0.66161  0.00317  Biso   1.000  Se
  Se10     1.0000 0.90374  0.66161  0.50317  Biso   1.000  Se
  Se11     1.0000 0.40374  0.16161  0.50317  Biso   1.000  Se
  Se12     1.0000 0.59626  0.16161  0.00317  Biso   1.000  Se
