data_image0
_cell_length_a       15.5962
_cell_length_b       15.5962
_cell_length_c       15.5962
_cell_angle_alpha    154.221
_cell_angle_beta     154.221
_cell_angle_gamma    36.779

_symmetry_space_group_name_H-M    "P 1"
_symmetry_int_tables_number       1

loop_
  _symmetry_equiv_pos_as_xyz
  'x, y, z'

loop_
  _atom_site_label
  _atom_site_occupancy
  _atom_site_fract_x
  _atom_site_fract_y
  _atom_site_fract_z
  _atom_site_thermal_displace_type
  _atom_site_B_iso_or_equiv
  _atom_site_type_symbol
  Al1      1.0000 0.00000  0.00000  0.00000  Biso   1.000  Al
  Al2      1.0000 0.00000  0.50000  0.00000  Biso   1.000  Al
  Al3      1.0000 0.50000  0.00000  0.50000  Biso   1.000  Al
  Al4      1.0000 1.00000  1.00000  0.50000  Biso   1.000  Al
  Al5      1.0000 0.30942  0.33223  0.97719  Biso   1.000  Al
  Al6      1.0000 0.66777  0.14497  0.97719  Biso   1.000  Al
  Al7      1.0000 0.14497  0.66777  0.47719  Biso   1.000  Al
  Al8      1.0000 0.69058  0.66777  0.02281  Biso   1.000  Al
  Al9      1.0000 0.66777  0.69058  0.52281  Biso   1.000  Al
  Al10     1.0000 0.33223  0.85503  0.02281  Biso   1.000  Al
  Al11     1.0000 0.85503  0.33223  0.52281  Biso   1.000  Al
  Al12     1.0000 0.33223  0.30942  0.47719  Biso   1.000  Al
  Al13     1.0000 0.45451  0.20451  0.25000  Biso   1.000  Al
  Al14     1.0000 0.79549  0.54549  0.25000  Biso   1.000  Al
  Al15     1.0000 0.54549  0.79549  0.75000  Biso   1.000  Al
  Al16     1.0000 0.20451  0.45451  0.75000  Biso   1.000  Al
  S1       1.0000 0.24335  0.25077  0.99258  Biso   1.000  S 
  S2       1.0000 0.74923  0.24180  0.99258  Biso   1.000  S 
  S3       1.0000 0.24180  0.74923  0.49258  Biso   1.000  S 
  S4       1.0000 0.75665  0.74923  0.00742  Biso   1.000  S 
  S5       1.0000 0.74923  0.75665  0.50742  Biso   1.000  S 
  S6       1.0000 0.25077  0.75820  0.00742  Biso   1.000  S 
  S7       1.0000 0.75820  0.25077  0.50742  Biso   1.000  S 
  S8       1.0000 0.25077  0.24335  0.49258  Biso   1.000  S 
  S9       1.0000 0.08566  0.07913  0.00653  Biso   1.000  S 
  S10      1.0000 0.92087  0.42740  0.00653  Biso   1.000  S 
  S11      1.0000 0.42740  0.92087  0.50653  Biso   1.000  S 
  S12      1.0000 0.91434  0.92087  0.99347  Biso   1.000  S 
  S13      1.0000 0.92087  0.91434  0.49347  Biso   1.000  S 
  S14      1.0000 0.07913  0.57260  0.99347  Biso   1.000  S 
  S15      1.0000 0.57260  0.07913  0.49347  Biso   1.000  S 
  S16      1.0000 0.07913  0.08566  0.50653  Biso   1.000  S 
  S17      1.0000 0.43418  0.41325  0.02093  Biso   1.000  S 
  S18      1.0000 0.58675  0.10768  0.02093  Biso   1.000  S 
  S19      1.0000 0.10768  0.58675  0.52093  Biso   1.000  S 
  S20      1.0000 0.56582  0.58675  0.97907  Biso   1.000  S 
  S21      1.0000 0.58675  0.56582  0.47907  Biso   1.000  S 
  S22      1.0000 0.41325  0.89232  0.97907  Biso   1.000  S 
  S23      1.0000 0.89232  0.41325  0.47907  Biso   1.000  S 
  S24      1.0000 0.41325  0.43418  0.52093  Biso   1.000  S 
