data_image0
_cell_length_a       6.48835
_cell_length_b       6.48835
_cell_length_c       6.48835
_cell_angle_alpha    55.6327
_cell_angle_beta     55.6327
_cell_angle_gamma    55.6327

_symmetry_space_group_name_H-M    "P 1"
_symmetry_int_tables_number       1

loop_
  _symmetry_equiv_pos_as_xyz
  'x, y, z'

loop_
  _atom_site_label
  _atom_site_occupancy
  _atom_site_fract_x
  _atom_site_fract_y
  _atom_site_fract_z
  _atom_site_thermal_displace_type
  _atom_site_B_iso_or_equiv
  _atom_site_type_symbol
  Al1      1.0000 0.15129  0.15129  0.15129  Biso   1.000  Al
  Al2      1.0000 0.34870  0.34871  0.34871  Biso   1.000  Al
  Al3      1.0000 0.84870  0.84871  0.84871  Biso   1.000  Al
  Al4      1.0000 0.65129  0.65130  0.65130  Biso   1.000  Al
  S1       1.0000 0.55605  0.94395  0.25000  Biso   1.000  S 
  S2       1.0000 0.94395  0.25000  0.55605  Biso   1.000  S 
  S3       1.0000 0.25000  0.55605  0.94395  Biso   1.000  S 
  S4       1.0000 0.05605  0.75000  0.44395  Biso   1.000  S 
  S5       1.0000 0.75000  0.44395  0.05605  Biso   1.000  S 
  S6       1.0000 0.44395  0.05605  0.75000  Biso   1.000  S 
