data_image0
_cell_length_a       7.09407
_cell_length_b       7.09407
_cell_length_c       7.09407
_cell_angle_alpha    60
_cell_angle_beta     60
_cell_angle_gamma    60

_symmetry_space_group_name_H-M    "P 1"
_symmetry_int_tables_number       1

loop_
  _symmetry_equiv_pos_as_xyz
  'x, y, z'

loop_
  _atom_site_label
  _atom_site_occupancy
  _atom_site_fract_x
  _atom_site_fract_y
  _atom_site_fract_z
  _atom_site_thermal_displace_type
  _atom_site_B_iso_or_equiv
  _atom_site_type_symbol
  Zn1      1.0000 0.25000  0.25000  0.25000  Biso   1.000  Zn
  Zn2      1.0000 0.00000  0.00000  0.00000  Biso   1.000  Zn
  Al1      1.0000 0.12500  0.62500  0.62500  Biso   1.000  Al
  Al2      1.0000 0.62500  0.12500  0.62500  Biso   1.000  Al
  Al3      1.0000 0.62500  0.62500  0.12500  Biso   1.000  Al
  Al4      1.0000 0.62500  0.62500  0.62500  Biso   1.000  Al
  S1       1.0000 0.84849  0.38384  0.38384  Biso   1.000  S 
  S2       1.0000 0.38384  0.84849  0.38384  Biso   1.000  S 
  S3       1.0000 0.38384  0.38384  0.84849  Biso   1.000  S 
  S4       1.0000 0.38384  0.38384  0.38384  Biso   1.000  S 
  S5       1.0000 0.40151  0.86616  0.86616  Biso   1.000  S 
  S6       1.0000 0.86616  0.40151  0.86616  Biso   1.000  S 
  S7       1.0000 0.86616  0.86616  0.40151  Biso   1.000  S 
  S8       1.0000 0.86616  0.86616  0.86616  Biso   1.000  S 
