data_image0
_cell_length_a       6.72568
_cell_length_b       6.72568
_cell_length_c       6.72568
_cell_angle_alpha    130.768
_cell_angle_beta     130.768
_cell_angle_gamma    72.1821

_symmetry_space_group_name_H-M    "P 1"
_symmetry_int_tables_number       1

loop_
  _symmetry_equiv_pos_as_xyz
  'x, y, z'

loop_
  _atom_site_label
  _atom_site_occupancy
  _atom_site_fract_x
  _atom_site_fract_y
  _atom_site_fract_z
  _atom_site_thermal_displace_type
  _atom_site_B_iso_or_equiv
  _atom_site_type_symbol
  Zn1      1.0000 0.00000  0.00000  0.00000  Biso   1.000  Zn
  Al1      1.0000 0.50000  0.50000  0.00000  Biso   1.000  Al
  Al2      1.0000 0.75000  0.25000  0.50000  Biso   1.000  Al
  Se1      1.0000 0.13039  0.62312  0.01735  Biso   1.000  Se
  Se2      1.0000 0.60577  0.11304  0.98265  Biso   1.000  Se
  Se3      1.0000 0.88696  0.86961  0.49273  Biso   1.000  Se
  Se4      1.0000 0.37688  0.39423  0.50727  Biso   1.000  Se
