data_image0
_cell_length_a       13.1142
_cell_length_b       7.27621
_cell_length_c       15.0594
_cell_angle_alpha    89.9964
_cell_angle_beta     90
_cell_angle_gamma    90

_symmetry_space_group_name_H-M    "P 1"
_symmetry_int_tables_number       1

loop_
  _symmetry_equiv_pos_as_xyz
  'x, y, z'

loop_
  _atom_site_label
  _atom_site_occupancy
  _atom_site_fract_x
  _atom_site_fract_y
  _atom_site_fract_z
  _atom_site_thermal_displace_type
  _atom_site_B_iso_or_equiv
  _atom_site_type_symbol
  Al1      1.0000 0.74936  0.41964  0.30831  Biso   1.000  Al
  Al2      1.0000 0.75064  0.41964  0.80831  Biso   1.000  Al
  Al3      1.0000 0.25064  0.58036  0.69169  Biso   1.000  Al
  Al4      1.0000 0.24936  0.58036  0.19169  Biso   1.000  Al
  Al5      1.0000 0.90641  0.93063  0.31913  Biso   1.000  Al
  Al6      1.0000 0.59359  0.93063  0.81913  Biso   1.000  Al
  Al7      1.0000 0.09359  0.06937  0.68087  Biso   1.000  Al
  Al8      1.0000 0.40641  0.06937  0.18087  Biso   1.000  Al
  Al9      1.0000 0.59017  0.92096  0.30317  Biso   1.000  Al
  Al10     1.0000 0.90983  0.92096  0.80317  Biso   1.000  Al
  Al11     1.0000 0.40983  0.07904  0.69683  Biso   1.000  Al
  Al12     1.0000 0.09017  0.07904  0.19683  Biso   1.000  Al
  Al13     1.0000 0.93213  0.56902  0.18735  Biso   1.000  Al
  Al14     1.0000 0.56787  0.56902  0.68735  Biso   1.000  Al
  Al15     1.0000 0.06787  0.43098  0.81265  Biso   1.000  Al
  Al16     1.0000 0.43213  0.43098  0.31265  Biso   1.000  Al
  Te1      1.0000 0.74227  0.08947  0.39136  Biso   1.000  Te
  Te2      1.0000 0.75773  0.08947  0.89136  Biso   1.000  Te
  Te3      1.0000 0.25773  0.91053  0.60864  Biso   1.000  Te
  Te4      1.0000 0.24227  0.91053  0.10864  Biso   1.000  Te
  Te5      1.0000 0.76236  0.41824  0.13775  Biso   1.000  Te
  Te6      1.0000 0.73764  0.41824  0.63775  Biso   1.000  Te
  Te7      1.0000 0.23764  0.58176  0.86225  Biso   1.000  Te
  Te8      1.0000 0.26236  0.58176  0.36225  Biso   1.000  Te
  Te9      1.0000 0.91570  0.92434  0.14039  Biso   1.000  Te
  Te10     1.0000 0.58430  0.92434  0.64039  Biso   1.000  Te
  Te11     1.0000 0.08430  0.07566  0.85961  Biso   1.000  Te
  Te12     1.0000 0.41570  0.07566  0.35961  Biso   1.000  Te
  Te13     1.0000 0.57627  0.91658  0.13245  Biso   1.000  Te
  Te14     1.0000 0.92373  0.91658  0.63245  Biso   1.000  Te
  Te15     1.0000 0.42373  0.08341  0.86755  Biso   1.000  Te
  Te16     1.0000 0.07627  0.08342  0.36755  Biso   1.000  Te
  Te17     1.0000 0.59341  0.59254  0.38861  Biso   1.000  Te
  Te18     1.0000 0.90659  0.59254  0.88861  Biso   1.000  Te
  Te19     1.0000 0.40659  0.40746  0.61139  Biso   1.000  Te
  Te20     1.0000 0.09341  0.40746  0.11139  Biso   1.000  Te
  Te21     1.0000 0.92318  0.57508  0.36617  Biso   1.000  Te
  Te22     1.0000 0.57682  0.57508  0.86617  Biso   1.000  Te
  Te23     1.0000 0.07682  0.42492  0.63383  Biso   1.000  Te
  Te24     1.0000 0.42318  0.42492  0.13383  Biso   1.000  Te
