data_image0
_cell_length_a       4.25565
_cell_length_b       14.5236
_cell_length_c       10.1175
_cell_angle_alpha    51.8003
_cell_angle_beta     90
_cell_angle_gamma    90

_symmetry_space_group_name_H-M    "P 1"
_symmetry_int_tables_number       1

loop_
  _symmetry_equiv_pos_as_xyz
  'x, y, z'

loop_
  _atom_site_label
  _atom_site_occupancy
  _atom_site_fract_x
  _atom_site_fract_y
  _atom_site_fract_z
  _atom_site_thermal_displace_type
  _atom_site_B_iso_or_equiv
  _atom_site_type_symbol
  Te1      1.0000 0.00000  0.81298  0.60533  Biso   1.000  Te
  Te2      1.0000 0.00000  0.18702  0.39467  Biso   1.000  Te
  Te3      1.0000 0.50000  0.68702  0.39467  Biso   1.000  Te
  Te4      1.0000 0.50000  0.31298  0.60533  Biso   1.000  Te
  Te5      1.0000 0.00000  0.58112  0.12135  Biso   1.000  Te
  Te6      1.0000 0.00000  0.41888  0.87865  Biso   1.000  Te
  Te7      1.0000 0.50000  0.91888  0.87865  Biso   1.000  Te
  Te8      1.0000 0.50000  0.08112  0.12135  Biso   1.000  Te
  Te9      1.0000 0.00000  0.00000  0.00000  Biso   1.000  Te
  Te10     1.0000 0.50000  0.50000  1.00000  Biso   1.000  Te
  Al1      1.0000 0.00000  0.63161  0.59838  Biso   1.000  Al
  Al2      1.0000 0.00000  0.36839  0.40162  Biso   1.000  Al
  Al3      1.0000 0.50000  0.86839  0.40162  Biso   1.000  Al
  Al4      1.0000 0.50000  0.13161  0.59838  Biso   1.000  Al
