data_image0
_cell_length_a       7.31253
_cell_length_b       7.31253
_cell_length_c       7.31253
_cell_angle_alpha    130.717
_cell_angle_beta     130.717
_cell_angle_gamma    72.263

_symmetry_space_group_name_H-M    "P 1"
_symmetry_int_tables_number       1

loop_
  _symmetry_equiv_pos_as_xyz
  'x, y, z'

loop_
  _atom_site_label
  _atom_site_occupancy
  _atom_site_fract_x
  _atom_site_fract_y
  _atom_site_fract_z
  _atom_site_thermal_displace_type
  _atom_site_B_iso_or_equiv
  _atom_site_type_symbol
  Zn1      1.0000 0.00000  0.00000  0.00000  Biso   1.000  Zn
  Al1      1.0000 0.50000  0.50000  0.00000  Biso   1.000  Al
  Al2      1.0000 0.75000  0.25000  0.50000  Biso   1.000  Al
  Te1      1.0000 0.13161  0.62820  0.02523  Biso   1.000  Te
  Te2      1.0000 0.60298  0.10638  0.97477  Biso   1.000  Te
  Te3      1.0000 0.89362  0.86839  0.49660  Biso   1.000  Te
  Te4      1.0000 0.37180  0.39702  0.50340  Biso   1.000  Te
