data_image0
_cell_length_a       12.3396
_cell_length_b       12.3396
_cell_length_c       12.3396
_cell_angle_alpha    58.1125
_cell_angle_beta     58.1125
_cell_angle_gamma    58.1125

_symmetry_space_group_name_H-M    "P 1"
_symmetry_int_tables_number       1

loop_
  _symmetry_equiv_pos_as_xyz
  'x, y, z'

loop_
  _atom_site_label
  _atom_site_occupancy
  _atom_site_fract_x
  _atom_site_fract_y
  _atom_site_fract_z
  _atom_site_thermal_displace_type
  _atom_site_B_iso_or_equiv
  _atom_site_type_symbol
  Bi1      1.0000 0.40902  0.09098  0.25000  Biso   1.000  Bi
  Bi2      1.0000 0.09098  0.25000  0.40902  Biso   1.000  Bi
  Bi3      1.0000 0.25000  0.40902  0.09098  Biso   1.000  Bi
  Bi4      1.0000 0.90902  0.75000  0.59098  Biso   1.000  Bi
  Bi5      1.0000 0.75000  0.59098  0.90902  Biso   1.000  Bi
  Bi6      1.0000 0.59098  0.90902  0.75000  Biso   1.000  Bi
  Bi7      1.0000 0.17195  0.17195  0.17195  Biso   1.000  Bi
  Bi8      1.0000 0.67195  0.67195  0.67195  Biso   1.000  Bi
  Bi9      1.0000 0.82805  0.82805  0.82805  Biso   1.000  Bi
  Bi10     1.0000 0.32805  0.32805  0.32805  Biso   1.000  Bi
  Al1      1.0000 0.77237  0.72763  0.25000  Biso   1.000  Al
  Al2      1.0000 0.72763  0.25000  0.77237  Biso   1.000  Al
  Al3      1.0000 0.25000  0.77237  0.72763  Biso   1.000  Al
  Al4      1.0000 0.27237  0.75000  0.22763  Biso   1.000  Al
  Al5      1.0000 0.75000  0.22763  0.27237  Biso   1.000  Al
  Al6      1.0000 0.22763  0.27237  0.75000  Biso   1.000  Al
  Cl1      1.0000 0.60788  0.77314  0.19788  Biso   1.000  Cl
  Cl2      1.0000 0.77314  0.19788  0.60788  Biso   1.000  Cl
  Cl3      1.0000 0.19788  0.60788  0.77314  Biso   1.000  Cl
  Cl4      1.0000 0.10788  0.69788  0.27314  Biso   1.000  Cl
  Cl5      1.0000 0.69788  0.27314  0.10788  Biso   1.000  Cl
  Cl6      1.0000 0.27314  0.10788  0.69788  Biso   1.000  Cl
  Cl7      1.0000 0.39212  0.22686  0.80212  Biso   1.000  Cl
  Cl8      1.0000 0.22686  0.80212  0.39212  Biso   1.000  Cl
  Cl9      1.0000 0.80212  0.39212  0.22686  Biso   1.000  Cl
  Cl10     1.0000 0.89212  0.30212  0.72686  Biso   1.000  Cl
  Cl11     1.0000 0.30212  0.72686  0.89212  Biso   1.000  Cl
  Cl12     1.0000 0.72686  0.89212  0.30212  Biso   1.000  Cl
  Cl13     1.0000 0.80466  0.54393  0.42374  Biso   1.000  Cl
  Cl14     1.0000 0.54393  0.42374  0.80466  Biso   1.000  Cl
  Cl15     1.0000 0.42374  0.80466  0.54393  Biso   1.000  Cl
  Cl16     1.0000 0.30466  0.92374  0.04393  Biso   1.000  Cl
  Cl17     1.0000 0.92374  0.04393  0.30466  Biso   1.000  Cl
  Cl18     1.0000 0.04393  0.30466  0.92374  Biso   1.000  Cl
  Cl19     1.0000 0.19534  0.45607  0.57626  Biso   1.000  Cl
  Cl20     1.0000 0.45607  0.57626  0.19534  Biso   1.000  Cl
  Cl21     1.0000 0.57626  0.19534  0.45607  Biso   1.000  Cl
  Cl22     1.0000 0.69534  0.07626  0.95607  Biso   1.000  Cl
  Cl23     1.0000 0.07626  0.95607  0.69534  Biso   1.000  Cl
  Cl24     1.0000 0.95607  0.69534  0.07626  Biso   1.000  Cl
