data_image0
_cell_length_a       12.7837
_cell_length_b       12.7837
_cell_length_c       12.7837
_cell_angle_alpha    58.9019
_cell_angle_beta     58.9019
_cell_angle_gamma    58.9019

_symmetry_space_group_name_H-M    "P 1"
_symmetry_int_tables_number       1

loop_
  _symmetry_equiv_pos_as_xyz
  'x, y, z'

loop_
  _atom_site_label
  _atom_site_occupancy
  _atom_site_fract_x
  _atom_site_fract_y
  _atom_site_fract_z
  _atom_site_thermal_displace_type
  _atom_site_B_iso_or_equiv
  _atom_site_type_symbol
  Bi1      1.0000 0.40067  0.09933  0.25000  Biso   1.000  Bi
  Bi2      1.0000 0.09933  0.25000  0.40067  Biso   1.000  Bi
  Bi3      1.0000 0.25000  0.40067  0.09933  Biso   1.000  Bi
  Bi4      1.0000 0.90067  0.75000  0.59933  Biso   1.000  Bi
  Bi5      1.0000 0.75000  0.59933  0.90067  Biso   1.000  Bi
  Bi6      1.0000 0.59933  0.90067  0.75000  Biso   1.000  Bi
  Bi7      1.0000 0.17307  0.17307  0.17307  Biso   1.000  Bi
  Bi8      1.0000 0.67307  0.67307  0.67307  Biso   1.000  Bi
  Bi9      1.0000 0.82693  0.82693  0.82693  Biso   1.000  Bi
  Bi10     1.0000 0.32693  0.32693  0.32693  Biso   1.000  Bi
  Al1      1.0000 0.76426  0.73574  0.25000  Biso   1.000  Al
  Al2      1.0000 0.73574  0.25000  0.76426  Biso   1.000  Al
  Al3      1.0000 0.25000  0.76426  0.73574  Biso   1.000  Al
  Al4      1.0000 0.26426  0.75000  0.23574  Biso   1.000  Al
  Al5      1.0000 0.75000  0.23574  0.26426  Biso   1.000  Al
  Al6      1.0000 0.23574  0.26426  0.75000  Biso   1.000  Al
  Br1      1.0000 0.59181  0.77987  0.19996  Biso   1.000  Br
  Br2      1.0000 0.77987  0.19996  0.59181  Biso   1.000  Br
  Br3      1.0000 0.19996  0.59181  0.77987  Biso   1.000  Br
  Br4      1.0000 0.09181  0.69996  0.27987  Biso   1.000  Br
  Br5      1.0000 0.69996  0.27987  0.09181  Biso   1.000  Br
  Br6      1.0000 0.27987  0.09181  0.69996  Biso   1.000  Br
  Br7      1.0000 0.40819  0.22013  0.80004  Biso   1.000  Br
  Br8      1.0000 0.22013  0.80004  0.40819  Biso   1.000  Br
  Br9      1.0000 0.80004  0.40819  0.22013  Biso   1.000  Br
  Br10     1.0000 0.90819  0.30004  0.72013  Biso   1.000  Br
  Br11     1.0000 0.30004  0.72013  0.90819  Biso   1.000  Br
  Br12     1.0000 0.72013  0.90819  0.30004  Biso   1.000  Br
  Br13     1.0000 0.80303  0.54885  0.42889  Biso   1.000  Br
  Br14     1.0000 0.54885  0.42889  0.80303  Biso   1.000  Br
  Br15     1.0000 0.42889  0.80303  0.54885  Biso   1.000  Br
  Br16     1.0000 0.30303  0.92889  0.04885  Biso   1.000  Br
  Br17     1.0000 0.92889  0.04885  0.30303  Biso   1.000  Br
  Br18     1.0000 0.04885  0.30303  0.92889  Biso   1.000  Br
  Br19     1.0000 0.19697  0.45115  0.57111  Biso   1.000  Br
  Br20     1.0000 0.45115  0.57111  0.19697  Biso   1.000  Br
  Br21     1.0000 0.57111  0.19697  0.45115  Biso   1.000  Br
  Br22     1.0000 0.69697  0.07111  0.95115  Biso   1.000  Br
  Br23     1.0000 0.07111  0.95115  0.69697  Biso   1.000  Br
  Br24     1.0000 0.95115  0.69697  0.07111  Biso   1.000  Br
