data_image0
_cell_length_a       3.25685
_cell_length_b       3.25687
_cell_length_c       31.53
_cell_angle_alpha    89.9999
_cell_angle_beta     90.0001
_cell_angle_gamma    120

_symmetry_space_group_name_H-M    "P 1"
_symmetry_int_tables_number       1

loop_
  _symmetry_equiv_pos_as_xyz
  'x, y, z'

loop_
  _atom_site_label
  _atom_site_occupancy
  _atom_site_fract_x
  _atom_site_fract_y
  _atom_site_fract_z
  _atom_site_thermal_displace_type
  _atom_site_B_iso_or_equiv
  _atom_site_type_symbol
  Sc1      1.0000 0.33334  0.66669  0.65916  Biso   1.000  Sc
  Sc2      1.0000 0.33334  0.66669  0.84084  Biso   1.000  Sc
  Sc3      1.0000 0.66666  0.33333  0.15917  Biso   1.000  Sc
  Sc4      1.0000 0.66666  0.33335  0.34083  Biso   1.000  Sc
  Sc5      1.0000 0.00000  0.00000  0.50000  Biso   1.000  Sc
  Sc6      1.0000 0.00000  0.00000  0.00000  Biso   1.000  Sc
  Al1      1.0000 0.33333  0.66668  0.43143  Biso   1.000  Al
  Al2      1.0000 0.33333  0.66667  0.06857  Biso   1.000  Al
  Al3      1.0000 0.66667  0.33334  0.93143  Biso   1.000  Al
  Al4      1.0000 0.66667  0.33334  0.56857  Biso   1.000  Al
  Al5      1.0000 0.99999  0.00001  0.75000  Biso   1.000  Al
  Al6      1.0000 0.00000  0.00002  0.25000  Biso   1.000  Al
  O1       1.0000 0.99999  0.00001  0.80908  Biso   1.000  O 
  O2       1.0000 1.00000  0.00003  0.69092  Biso   1.000  O 
  O3       1.0000 0.00000  0.00003  0.30908  Biso   1.000  O 
  O4       1.0000 0.00000  0.00001  0.19092  Biso   1.000  O 
  O5       1.0000 0.33333  0.66668  0.75000  Biso   1.000  O 
  O6       1.0000 0.66667  0.33335  0.25000  Biso   1.000  O 
  O7       1.0000 0.33335  0.66669  0.37291  Biso   1.000  O 
  O8       1.0000 0.33335  0.66669  0.12709  Biso   1.000  O 
  O9       1.0000 0.66665  0.33332  0.87291  Biso   1.000  O 
  O10      1.0000 0.66665  0.33334  0.62709  Biso   1.000  O 
  C1       1.0000 0.66667  0.33334  0.45419  Biso   1.000  C 
  C2       1.0000 0.66667  0.33333  0.04581  Biso   1.000  C 
  C3       1.0000 0.33333  0.66667  0.95419  Biso   1.000  C 
  C4       1.0000 0.33333  0.66668  0.54580  Biso   1.000  C 
