data_image0
_cell_length_a       3.42757
_cell_length_b       3.42757
_cell_length_c       17.2933
_cell_angle_alpha    90
_cell_angle_beta     90
_cell_angle_gamma    120

_symmetry_space_group_name_H-M    "P 1"
_symmetry_int_tables_number       1

loop_
  _symmetry_equiv_pos_as_xyz
  'x, y, z'

loop_
  _atom_site_label
  _atom_site_occupancy
  _atom_site_fract_x
  _atom_site_fract_y
  _atom_site_fract_z
  _atom_site_thermal_displace_type
  _atom_site_B_iso_or_equiv
  _atom_site_type_symbol
  Y1       1.0000 0.00000  0.00000  0.50000  Biso   1.000  Y 
  Y2       1.0000 0.00000  0.00000  0.00000  Biso   1.000  Y 
  Al1      1.0000 0.33333  0.66667  0.36652  Biso   1.000  Al
  Al2      1.0000 0.66667  0.33333  0.63348  Biso   1.000  Al
  Al3      1.0000 0.66667  0.33333  0.86652  Biso   1.000  Al
  Al4      1.0000 0.33333  0.66667  0.13348  Biso   1.000  Al
  Al5      1.0000 0.33333  0.66667  0.75000  Biso   1.000  Al
  Al6      1.0000 0.66667  0.33333  0.25000  Biso   1.000  Al
  C1       1.0000 0.33333  0.66667  0.90718  Biso   1.000  C 
  C2       1.0000 0.66667  0.33333  0.09282  Biso   1.000  C 
  C3       1.0000 0.66667  0.33333  0.40718  Biso   1.000  C 
  C4       1.0000 0.33333  0.66667  0.59282  Biso   1.000  C 
  C5       1.0000 0.33333  0.66667  0.25000  Biso   1.000  C 
  C6       1.0000 0.66667  0.33333  0.75000  Biso   1.000  C 
