data_image0
_cell_length_a       6.17702
_cell_length_b       7.33746
_cell_length_c       7.80815
_cell_angle_alpha    64.5866
_cell_angle_beta     88.1635
_cell_angle_gamma    86.68

_symmetry_space_group_name_H-M    "P 1"
_symmetry_int_tables_number       1

loop_
  _symmetry_equiv_pos_as_xyz
  'x, y, z'

loop_
  _atom_site_label
  _atom_site_occupancy
  _atom_site_fract_x
  _atom_site_fract_y
  _atom_site_fract_z
  _atom_site_thermal_displace_type
  _atom_site_B_iso_or_equiv
  _atom_site_type_symbol
  Al1      1.0000 0.28943  0.25284  0.01020  Biso   1.000  Al
  Al2      1.0000 0.71057  0.74716  0.98980  Biso   1.000  Al
  Al3      1.0000 0.35143  0.34923  0.60656  Biso   1.000  Al
  Al4      1.0000 0.64857  0.65077  0.39344  Biso   1.000  Al
  Al5      1.0000 0.14697  0.15142  0.39610  Biso   1.000  Al
  Al6      1.0000 0.85303  0.84858  0.60390  Biso   1.000  Al
  Si1      1.0000 0.36558  0.72724  0.70848  Biso   1.000  Si
  Si2      1.0000 0.63442  0.27276  0.29152  Biso   1.000  Si
  Si3      1.0000 0.14250  0.77745  0.29541  Biso   1.000  Si
  Si4      1.0000 0.85750  0.22255  0.70459  Biso   1.000  Si
  O1       1.0000 0.30031  0.49032  0.77505  Biso   1.000  O 
  O2       1.0000 0.69969  0.50968  0.22495  Biso   1.000  O 
  O3       1.0000 0.21063  0.01119  0.23102  Biso   1.000  O 
  O4       1.0000 0.78937  0.98881  0.76898  Biso   1.000  O 
  O5       1.0000 0.35979  0.14052  0.84720  Biso   1.000  O 
  O6       1.0000 0.64021  0.85948  0.15280  Biso   1.000  O 
  O7       1.0000 0.14003  0.35993  0.15404  Biso   1.000  O 
  O8       1.0000 0.85997  0.64007  0.84596  Biso   1.000  O 
  O9       1.0000 0.43081  0.75869  0.89636  Biso   1.000  O 
  O10      1.0000 0.56919  0.24131  0.10364  Biso   1.000  O 
  O11      1.0000 0.07782  0.74929  0.10225  Biso   1.000  O 
  O12      1.0000 0.92218  0.25071  0.89775  Biso   1.000  O 
  O13      1.0000 0.42480  0.21716  0.44030  Biso   1.000  O 
  O14      1.0000 0.57520  0.78284  0.55970  Biso   1.000  O 
  O15      1.0000 0.07261  0.28130  0.56492  Biso   1.000  O 
  O16      1.0000 0.92739  0.71870  0.43508  Biso   1.000  O 
  O17      1.0000 0.34237  0.61101  0.40180  Biso   1.000  O 
  O18      1.0000 0.65763  0.38899  0.59820  Biso   1.000  O 
  O19      1.0000 0.15851  0.88723  0.60118  Biso   1.000  O 
  O20      1.0000 0.84149  0.11277  0.39882  Biso   1.000  O 
  H1       1.0000 0.20710  0.76298  0.01523  Biso   1.000  H 
  H2       1.0000 0.79290  0.23702  0.98477  Biso   1.000  H 
  H3       1.0000 0.11145  0.50158  0.13134  Biso   1.000  H 
  H4       1.0000 0.88855  0.49842  0.86866  Biso   1.000  H 
  H5       1.0000 0.37832  0.99767  0.86779  Biso   1.000  H 
  H6       1.0000 0.62168  0.00233  0.13221  Biso   1.000  H 
