data_image0
_cell_length_a       6.18386
_cell_length_b       7.33824
_cell_length_c       7.81048
_cell_angle_alpha    64.6008
_cell_angle_beta     88.0791
_cell_angle_gamma    86.6632

_symmetry_space_group_name_H-M    "P 1"
_symmetry_int_tables_number       1

loop_
  _symmetry_equiv_pos_as_xyz
  'x, y, z'

loop_
  _atom_site_label
  _atom_site_occupancy
  _atom_site_fract_x
  _atom_site_fract_y
  _atom_site_fract_z
  _atom_site_thermal_displace_type
  _atom_site_B_iso_or_equiv
  _atom_site_type_symbol
  Si1      1.0000 0.64178  0.27058  0.29211  Biso   1.000  Si
  Si2      1.0000 0.37256  0.72524  0.70883  Biso   1.000  Si
  Si3      1.0000 0.14993  0.77525  0.29603  Biso   1.000  Si
  Si4      1.0000 0.86441  0.22056  0.70493  Biso   1.000  Si
  Al1      1.0000 0.29708  0.25077  0.01098  Biso   1.000  Al
  Al2      1.0000 0.71723  0.74506  0.98994  Biso   1.000  Al
  Al3      1.0000 0.35853  0.34709  0.60712  Biso   1.000  Al
  Al4      1.0000 0.65583  0.64875  0.39385  Biso   1.000  Al
  Al5      1.0000 0.85998  0.84655  0.60430  Biso   1.000  Al
  Al6      1.0000 0.15434  0.14930  0.39663  Biso   1.000  Al
  O1       1.0000 0.30769  0.48818  0.77580  Biso   1.000  O 
  O2       1.0000 0.70668  0.50766  0.22514  Biso   1.000  O 
  O3       1.0000 0.79649  0.98667  0.76946  Biso   1.000  O 
  O4       1.0000 0.21790  0.00911  0.23150  Biso   1.000  O 
  O5       1.0000 0.36639  0.13849  0.84770  Biso   1.000  O 
  O6       1.0000 0.64787  0.85732  0.15325  Biso   1.000  O 
  O7       1.0000 0.86616  0.63780  0.84612  Biso   1.000  O 
  O8       1.0000 0.14810  0.35802  0.15480  Biso   1.000  O 
  O9       1.0000 0.57649  0.23898  0.10429  Biso   1.000  O 
  O10      1.0000 0.43781  0.75687  0.89663  Biso   1.000  O 
  O11      1.0000 0.08662  0.74669  0.10302  Biso   1.000  O 
  O12      1.0000 0.92772  0.24909  0.89794  Biso   1.000  O 
  O13      1.0000 0.43210  0.21495  0.44088  Biso   1.000  O 
  O14      1.0000 0.58223  0.78094  0.56001  Biso   1.000  O 
  O15      1.0000 0.93456  0.71670  0.43552  Biso   1.000  O 
  O16      1.0000 0.07981  0.27913  0.56540  Biso   1.000  O 
  O17      1.0000 0.66473  0.38673  0.59821  Biso   1.000  O 
  O18      1.0000 0.34964  0.60908  0.40275  Biso   1.000  O 
  O19      1.0000 0.16553  0.88497  0.60178  Biso   1.000  O 
  O20      1.0000 0.84882  0.11089  0.39913  Biso   1.000  O 
  H1       1.0000 0.38547  0.99582  0.86791  Biso   1.000  H 
  H2       1.0000 0.62878  0.99997  0.13302  Biso   1.000  H 
  H3       1.0000 0.89451  0.49606  0.86869  Biso   1.000  H 
  H4       1.0000 0.11990  0.49976  0.13227  Biso   1.000  H 
  H5       1.0000 0.21622  0.76062  0.01615  Biso   1.000  H 
  H6       1.0000 0.79801  0.23523  0.98474  Biso   1.000  H 
