data_image0
_cell_length_a       5.86804
_cell_length_b       7.51803
_cell_length_c       9.9784
_cell_angle_alpha    83.5731
_cell_angle_beta     76.7993
_cell_angle_gamma    79.599

_symmetry_space_group_name_H-M    "P 1"
_symmetry_int_tables_number       1

loop_
  _symmetry_equiv_pos_as_xyz
  'x, y, z'

loop_
  _atom_site_label
  _atom_site_occupancy
  _atom_site_fract_x
  _atom_site_fract_y
  _atom_site_fract_z
  _atom_site_thermal_displace_type
  _atom_site_B_iso_or_equiv
  _atom_site_type_symbol
  Sr1      1.0000 0.99647  0.86606  0.87311  Biso   1.000  Sr
  Sr2      1.0000 0.00353  0.13394  0.12689  Biso   1.000  Sr
  Sr3      1.0000 0.97542  0.61584  0.62883  Biso   1.000  Sr
  Sr4      1.0000 0.02458  0.38416  0.37117  Biso   1.000  Sr
  Al1      1.0000 0.44820  0.04616  0.87629  Biso   1.000  Al
  Al2      1.0000 0.55180  0.95384  0.12371  Biso   1.000  Al
  Al3      1.0000 0.82456  0.05962  0.60198  Biso   1.000  Al
  Al4      1.0000 0.17544  0.94038  0.39802  Biso   1.000  Al
  Al5      1.0000 0.83103  0.29175  0.85271  Biso   1.000  Al
  Al6      1.0000 0.16897  0.70825  0.14729  Biso   1.000  Al
  Al7      1.0000 0.17904  0.44293  0.89986  Biso   1.000  Al
  Al8      1.0000 0.82096  0.55707  0.10014  Biso   1.000  Al
  Al9      1.0000 0.53052  0.43833  0.62468  Biso   1.000  Al
  Al10     1.0000 0.46948  0.56167  0.37532  Biso   1.000  Al
  Al11     1.0000 0.43669  0.79639  0.63281  Biso   1.000  Al
  Al12     1.0000 0.56331  0.20361  0.36719  Biso   1.000  Al
  N1       1.0000 0.65051  0.13251  0.97195  Biso   1.000  N 
  N2       1.0000 0.34949  0.86749  0.02805  Biso   1.000  N 
  N3       1.0000 0.62736  0.64482  0.49579  Biso   1.000  N 
  N4       1.0000 0.37264  0.35518  0.50421  Biso   1.000  N 
  N5       1.0000 0.61455  0.91654  0.72022  Biso   1.000  N 
  N6       1.0000 0.38545  0.08346  0.27978  Biso   1.000  N 
  N7       1.0000 0.84848  0.06852  0.40765  Biso   1.000  N 
  N8       1.0000 0.15152  0.93148  0.59235  Biso   1.000  N 
  N9       1.0000 0.16938  0.20493  0.85574  Biso   1.000  N 
  N10      1.0000 0.83062  0.79507  0.14426  Biso   1.000  N 
  N11      1.0000 0.83711  0.52320  0.91145  Biso   1.000  N 
  N12      1.0000 0.16289  0.47680  0.08855  Biso   1.000  N 
  N13      1.0000 0.80129  0.29030  0.66793  Biso   1.000  N 
  N14      1.0000 0.19871  0.70970  0.33207  Biso   1.000  N 
  N15      1.0000 0.34155  0.59075  0.76146  Biso   1.000  N 
  N16      1.0000 0.65845  0.40925  0.23854  Biso   1.000  N 
  Li1      1.0000 0.53173  0.67392  0.88800  Biso   1.000  Li
  Li2      1.0000 0.46827  0.32608  0.11200  Biso   1.000  Li
  Li3      1.0000 0.78933  0.82020  0.35535  Biso   1.000  Li
  Li4      1.0000 0.21067  0.17980  0.64465  Biso   1.000  Li
