data_image0
_cell_length_a       7.65729
_cell_length_b       8.14117
_cell_length_c       5.69899
_cell_angle_alpha    90
_cell_angle_beta     90
_cell_angle_gamma    90

_symmetry_space_group_name_H-M    "P 1"
_symmetry_int_tables_number       1

loop_
  _symmetry_equiv_pos_as_xyz
  'x, y, z'

loop_
  _atom_site_label
  _atom_site_occupancy
  _atom_site_fract_x
  _atom_site_fract_y
  _atom_site_fract_z
  _atom_site_thermal_displace_type
  _atom_site_B_iso_or_equiv
  _atom_site_type_symbol
  Bi1      1.0000 0.16232  0.16552  0.00000  Biso   1.000  Bi
  Bi2      1.0000 0.66232  0.33448  0.00000  Biso   1.000  Bi
  Bi3      1.0000 0.33768  0.66552  0.00000  Biso   1.000  Bi
  Bi4      1.0000 0.83768  0.83448  0.00000  Biso   1.000  Bi
  Al1      1.0000 0.50000  0.00000  0.25973  Biso   1.000  Al
  Al2      1.0000 0.00000  0.50000  0.25973  Biso   1.000  Al
  Al3      1.0000 0.50000  0.00000  0.74027  Biso   1.000  Al
  Al4      1.0000 0.00000  0.50000  0.74027  Biso   1.000  Al
  Al5      1.0000 0.35228  0.33702  0.50000  Biso   1.000  Al
  Al6      1.0000 0.85228  0.16298  0.50000  Biso   1.000  Al
  Al7      1.0000 0.14772  0.83702  0.50000  Biso   1.000  Al
  Al8      1.0000 0.64772  0.66298  0.50000  Biso   1.000  Al
  O1       1.0000 0.00000  0.00000  0.50000  Biso   1.000  O 
  O2       1.0000 0.50000  0.50000  0.50000  Biso   1.000  O 
  O3       1.0000 0.37522  0.20728  0.24894  Biso   1.000  O 
  O4       1.0000 0.87522  0.29272  0.24894  Biso   1.000  O 
  O5       1.0000 0.12478  0.70728  0.24894  Biso   1.000  O 
  O6       1.0000 0.37522  0.20728  0.75106  Biso   1.000  O 
  O7       1.0000 0.62478  0.79272  0.75106  Biso   1.000  O 
  O8       1.0000 0.12478  0.70728  0.75106  Biso   1.000  O 
  O9       1.0000 0.87522  0.29272  0.75106  Biso   1.000  O 
  O10      1.0000 0.62478  0.79272  0.24894  Biso   1.000  O 
  O11      1.0000 0.13773  0.41294  0.50000  Biso   1.000  O 
  O12      1.0000 0.63773  0.08706  0.50000  Biso   1.000  O 
  O13      1.0000 0.36227  0.91294  0.50000  Biso   1.000  O 
  O14      1.0000 0.86227  0.58706  0.50000  Biso   1.000  O 
  O15      1.0000 0.14635  0.43335  0.00000  Biso   1.000  O 
  O16      1.0000 0.64635  0.06665  0.00000  Biso   1.000  O 
  O17      1.0000 0.35365  0.93335  0.00000  Biso   1.000  O 
  O18      1.0000 0.85365  0.56665  0.00000  Biso   1.000  O 
