data_image0
_cell_length_a       6.62606
_cell_length_b       7.67973
_cell_length_c       15.0442
_cell_angle_alpha    58.4736
_cell_angle_beta     90
_cell_angle_gamma    90

_symmetry_space_group_name_H-M    "P 1"
_symmetry_int_tables_number       1

loop_
  _symmetry_equiv_pos_as_xyz
  'x, y, z'

loop_
  _atom_site_label
  _atom_site_occupancy
  _atom_site_fract_x
  _atom_site_fract_y
  _atom_site_fract_z
  _atom_site_thermal_displace_type
  _atom_site_B_iso_or_equiv
  _atom_site_type_symbol
  Ba1      1.0000 0.64173  0.47538  0.54400  Biso   1.000  Ba
  Ba2      1.0000 0.35827  0.47538  0.04400  Biso   1.000  Ba
  Al1      1.0000 0.84352  0.52369  0.24261  Biso   1.000  Al
  Al2      1.0000 0.15648  0.52369  0.74261  Biso   1.000  Al
  Al3      1.0000 0.98011  0.99344  0.50451  Biso   1.000  Al
  Al4      1.0000 0.01989  0.99344  0.00451  Biso   1.000  Al
  Al5      1.0000 0.85102  0.03738  0.22709  Biso   1.000  Al
  Al6      1.0000 0.14898  0.03738  0.72709  Biso   1.000  Al
  Al7      1.0000 0.62784  0.78892  0.72346  Biso   1.000  Al
  Al8      1.0000 0.37216  0.78892  0.22346  Biso   1.000  Al
  Se1      1.0000 0.86188  0.66988  0.05856  Biso   1.000  Se
  Se2      1.0000 0.13812  0.66988  0.55856  Biso   1.000  Se
  Se3      1.0000 0.62878  0.92445  0.54046  Biso   1.000  Se
  Se4      1.0000 0.37122  0.92445  0.04046  Biso   1.000  Se
  Se5      1.0000 0.90359  0.24041  0.04435  Biso   1.000  Se
  Se6      1.0000 0.09641  0.24041  0.54435  Biso   1.000  Se
  Se7      1.0000 0.97033  0.71174  0.80664  Biso   1.000  Se
  Se8      1.0000 0.02967  0.71174  0.30664  Biso   1.000  Se
  Se9      1.0000 0.48025  0.45605  0.82181  Biso   1.000  Se
  Se10     1.0000 0.51975  0.45605  0.32181  Biso   1.000  Se
  Se11     1.0000 0.49524  0.01469  0.77400  Biso   1.000  Se
  Se12     1.0000 0.50476  0.01469  0.27400  Biso   1.000  Se
  Se13     1.0000 0.97366  0.19984  0.81023  Biso   1.000  Se
  Se14     1.0000 0.02634  0.19984  0.31023  Biso   1.000  Se
