data_image0
_cell_length_a       3.32672
_cell_length_b       3.32671
_cell_length_c       21.7442
_cell_angle_alpha    90
_cell_angle_beta     90
_cell_angle_gamma    120

_symmetry_space_group_name_H-M    "P 1"
_symmetry_int_tables_number       1

loop_
  _symmetry_equiv_pos_as_xyz
  'x, y, z'

loop_
  _atom_site_label
  _atom_site_occupancy
  _atom_site_fract_x
  _atom_site_fract_y
  _atom_site_fract_z
  _atom_site_thermal_displace_type
  _atom_site_B_iso_or_equiv
  _atom_site_type_symbol
  Al1      1.0000 0.66667  0.33333  0.54927  Biso   1.000  Al
  Al2      1.0000 0.33333  0.66667  0.04927  Biso   1.000  Al
  Al3      1.0000 0.00000  0.00000  0.65689  Biso   1.000  Al
  Al4      1.0000 0.00000  0.00000  0.15689  Biso   1.000  Al
  Al5      1.0000 0.66667  0.33333  0.74564  Biso   1.000  Al
  Al6      1.0000 0.33333  0.66667  0.24564  Biso   1.000  Al
  Al7      1.0000 0.00000  0.00000  0.84655  Biso   1.000  Al
  Al8      1.0000 0.00000  0.00000  0.34655  Biso   1.000  Al
  Si1      1.0000 0.66667  0.33333  0.95482  Biso   1.000  Si
  Si2      1.0000 0.33333  0.66667  0.45482  Biso   1.000  Si
  C1       1.0000 0.66667  0.33333  0.63596  Biso   1.000  C 
  C2       1.0000 0.33333  0.66667  0.13596  Biso   1.000  C 
  C3       1.0000 0.00000  0.00000  0.49695  Biso   1.000  C 
  C4       1.0000 0.00000  0.00000  0.99695  Biso   1.000  C 
  C5       1.0000 0.00000  0.00000  0.75300  Biso   1.000  C 
  C6       1.0000 0.00000  0.00000  0.25300  Biso   1.000  C 
  C7       1.0000 0.66667  0.33333  0.87394  Biso   1.000  C 
  C8       1.0000 0.33333  0.66667  0.37394  Biso   1.000  C 
