data_image0
_cell_length_a       8.57167
_cell_length_b       8.57167
_cell_length_c       8.57167
_cell_angle_alpha    22.5265
_cell_angle_beta     22.5265
_cell_angle_gamma    22.5265

_symmetry_space_group_name_H-M    "P 1"
_symmetry_int_tables_number       1

loop_
  _symmetry_equiv_pos_as_xyz
  'x, y, z'

loop_
  _atom_site_label
  _atom_site_occupancy
  _atom_site_fract_x
  _atom_site_fract_y
  _atom_site_fract_z
  _atom_site_thermal_displace_type
  _atom_site_B_iso_or_equiv
  _atom_site_type_symbol
  Al1      1.0000 0.70607  0.70607  0.70607  Biso   1.000  Al
  Al2      1.0000 0.12941  0.12941  0.12941  Biso   1.000  Al
  Al3      1.0000 0.86965  0.86965  0.86965  Biso   1.000  Al
  Al4      1.0000 0.29309  0.29309  0.29309  Biso   1.000  Al
  C1       1.0000 0.99964  0.99964  0.99964  Biso   1.000  C 
  C2       1.0000 0.78284  0.78284  0.78284  Biso   1.000  C 
  C3       1.0000 0.21629  0.21629  0.21629  Biso   1.000  C 
