data_image0
_cell_length_a       3.29818
_cell_length_b       3.29818
_cell_length_c       21.7631
_cell_angle_alpha    90
_cell_angle_beta     90
_cell_angle_gamma    120

_symmetry_space_group_name_H-M    "P 1"
_symmetry_int_tables_number       1

loop_
  _symmetry_equiv_pos_as_xyz
  'x, y, z'

loop_
  _atom_site_label
  _atom_site_occupancy
  _atom_site_fract_x
  _atom_site_fract_y
  _atom_site_fract_z
  _atom_site_thermal_displace_type
  _atom_site_B_iso_or_equiv
  _atom_site_type_symbol
  Al1      1.0000 0.33333  0.66669  0.04455  Biso   1.000  Al
  Al2      1.0000 0.66667  0.33336  0.54455  Biso   1.000  Al
  Al3      1.0000 0.99999  0.00002  0.15906  Biso   1.000  Al
  Al4      1.0000 0.00001  0.00003  0.65906  Biso   1.000  Al
  Al5      1.0000 0.33332  0.66669  0.26260  Biso   1.000  Al
  Al6      1.0000 0.66668  0.33337  0.76260  Biso   1.000  Al
  Al7      1.0000 0.99998  0.00002  0.34763  Biso   1.000  Al
  Al8      1.0000 0.00002  0.00004  0.84763  Biso   1.000  Al
  Al9      1.0000 0.33333  0.66670  0.45287  Biso   1.000  Al
  Al10     1.0000 0.66667  0.33337  0.95287  Biso   1.000  Al
  N1       1.0000 0.33332  0.66668  0.12960  Biso   1.000  N 
  N2       1.0000 0.66668  0.33336  0.62960  Biso   1.000  N 
  C1       1.0000 1.00000  0.00003  0.00203  Biso   1.000  C 
  C2       1.0000 0.00000  0.00003  0.50203  Biso   1.000  C 
  C3       1.0000 0.99998  0.00002  0.24889  Biso   1.000  C 
  C4       1.0000 0.00002  0.00004  0.74889  Biso   1.000  C 
  C5       1.0000 0.33332  0.66669  0.36578  Biso   1.000  C 
  C6       1.0000 0.66668  0.33337  0.86578  Biso   1.000  C 
