data_image0
_cell_length_a       2.94632
_cell_length_b       9.16808
_cell_length_c       15.4701
_cell_angle_alpha    90
_cell_angle_beta     90
_cell_angle_gamma    90

_symmetry_space_group_name_H-M    "P 1"
_symmetry_int_tables_number       1

loop_
  _symmetry_equiv_pos_as_xyz
  'x, y, z'

loop_
  _atom_site_label
  _atom_site_occupancy
  _atom_site_fract_x
  _atom_site_fract_y
  _atom_site_fract_z
  _atom_site_thermal_displace_type
  _atom_site_B_iso_or_equiv
  _atom_site_type_symbol
  Na1      1.0000 0.50000  0.50000  0.00000  Biso   1.000  Na
  Na2      1.0000 0.50000  0.00000  0.50000  Biso   1.000  Na
  Al1      1.0000 0.00000  0.50000  0.50000  Biso   1.000  Al
  Al2      1.0000 0.00000  0.00000  0.00000  Biso   1.000  Al
  Al3      1.0000 0.00000  0.51577  0.19825  Biso   1.000  Al
  Al4      1.0000 0.00000  0.48423  0.80175  Biso   1.000  Al
  Al5      1.0000 0.00000  0.01577  0.30175  Biso   1.000  Al
  Al6      1.0000 0.00000  0.98423  0.69825  Biso   1.000  Al
  Al7      1.0000 0.50000  0.81371  0.14709  Biso   1.000  Al
  Al8      1.0000 0.50000  0.18629  0.85291  Biso   1.000  Al
  Al9      1.0000 0.50000  0.31371  0.35291  Biso   1.000  Al
  Al10     1.0000 0.50000  0.68629  0.64709  Biso   1.000  Al
  Ti1      1.0000 0.50000  0.73519  0.35746  Biso   1.000  Ti
  Ti2      1.0000 0.50000  0.26481  0.64254  Biso   1.000  Ti
  Ti3      1.0000 0.50000  0.23519  0.14254  Biso   1.000  Ti
  Ti4      1.0000 0.50000  0.76481  0.85746  Biso   1.000  Ti
  O1       1.0000 0.50000  0.60754  0.44963  Biso   1.000  O 
  O2       1.0000 0.50000  0.39246  0.55037  Biso   1.000  O 
  O3       1.0000 0.50000  0.10754  0.05037  Biso   1.000  O 
  O4       1.0000 0.50000  0.89246  0.94963  Biso   1.000  O 
  O5       1.0000 0.00000  0.87131  0.39525  Biso   1.000  O 
  O6       1.0000 0.00000  0.12869  0.60475  Biso   1.000  O 
  O7       1.0000 0.00000  0.37131  0.10475  Biso   1.000  O 
  O8       1.0000 0.00000  0.62869  0.89525  Biso   1.000  O 
  O9       1.0000 0.00000  0.64521  0.29417  Biso   1.000  O 
  O10      1.0000 0.00000  0.35479  0.70583  Biso   1.000  O 
  O11      1.0000 0.00000  0.14521  0.20583  Biso   1.000  O 
  O12      1.0000 0.00000  0.85479  0.79417  Biso   1.000  O 
  O13      1.0000 0.50000  0.89825  0.25282  Biso   1.000  O 
  O14      1.0000 0.50000  0.10175  0.74718  Biso   1.000  O 
  O15      1.0000 0.50000  0.39825  0.24718  Biso   1.000  O 
  O16      1.0000 0.50000  0.60175  0.75282  Biso   1.000  O 
  O17      1.0000 0.50000  0.61899  0.14729  Biso   1.000  O 
  O18      1.0000 0.50000  0.38101  0.85271  Biso   1.000  O 
  O19      1.0000 0.50000  0.11899  0.35271  Biso   1.000  O 
  O20      1.0000 0.50000  0.88101  0.64729  Biso   1.000  O 
  O21      1.0000 0.00000  0.86924  0.09451  Biso   1.000  O 
  O22      1.0000 0.00000  0.13076  0.90549  Biso   1.000  O 
  O23      1.0000 0.00000  0.36924  0.40549  Biso   1.000  O 
  O24      1.0000 0.00000  0.63076  0.59451  Biso   1.000  O 
