data_image0
_cell_length_a       13.5956
_cell_length_b       13.5956
_cell_length_c       13.5956
_cell_angle_alpha    13.8001
_cell_angle_beta     13.8001
_cell_angle_gamma    13.8001

_symmetry_space_group_name_H-M    "P 1"
_symmetry_int_tables_number       1

loop_
  _symmetry_equiv_pos_as_xyz
  'x, y, z'

loop_
  _atom_site_label
  _atom_site_occupancy
  _atom_site_fract_x
  _atom_site_fract_y
  _atom_site_fract_z
  _atom_site_thermal_displace_type
  _atom_site_B_iso_or_equiv
  _atom_site_type_symbol
  Al1      1.0000 0.69127  0.69127  0.69127  Biso   1.000  Al
  Al2      1.0000 0.30873  0.30873  0.30873  Biso   1.000  Al
  Al3      1.0000 0.08723  0.08723  0.08723  Biso   1.000  Al
  Al4      1.0000 0.91277  0.91277  0.91277  Biso   1.000  Al
  Al5      1.0000 0.81059  0.81059  0.81059  Biso   1.000  Al
  Al6      1.0000 0.18941  0.18941  0.18941  Biso   1.000  Al
  N1       1.0000 0.73646  0.73647  0.73647  Biso   1.000  N 
  N2       1.0000 0.26353  0.26353  0.26353  Biso   1.000  N 
  C1       1.0000 0.00000  0.00000  0.00000  Biso   1.000  C 
  C2       1.0000 0.13493  0.13493  0.13493  Biso   1.000  C 
  C3       1.0000 0.86507  0.86507  0.86507  Biso   1.000  C 
