data_image0
_cell_length_a       7.83857
_cell_length_b       7.83857
_cell_length_c       7.83857
_cell_angle_alpha    109.471
_cell_angle_beta     109.471
_cell_angle_gamma    109.471

_symmetry_space_group_name_H-M    "P 1"
_symmetry_int_tables_number       1

loop_
  _symmetry_equiv_pos_as_xyz
  'x, y, z'

loop_
  _atom_site_label
  _atom_site_occupancy
  _atom_site_fract_x
  _atom_site_fract_y
  _atom_site_fract_z
  _atom_site_thermal_displace_type
  _atom_site_B_iso_or_equiv
  _atom_site_type_symbol
  Cd1      1.0000 0.00000  0.00000  0.64262  Biso   1.000  Cd
  Cd2      1.0000 0.00000  0.64262  0.00000  Biso   1.000  Cd
  Cd3      1.0000 0.64262  0.00000  0.00000  Biso   1.000  Cd
  Cd4      1.0000 0.35738  0.35738  0.35738  Biso   1.000  Cd
  Al1      1.0000 0.75000  0.25000  0.50000  Biso   1.000  Al
  Al2      1.0000 0.75000  0.50000  0.25000  Biso   1.000  Al
  Al3      1.0000 0.50000  0.25000  0.75000  Biso   1.000  Al
  Al4      1.0000 0.25000  0.50000  0.75000  Biso   1.000  Al
  Al5      1.0000 0.25000  0.75000  0.50000  Biso   1.000  Al
  Al6      1.0000 0.50000  0.75000  0.25000  Biso   1.000  Al
  O1       1.0000 0.00000  0.72259  0.43633  Biso   1.000  O 
  O2       1.0000 0.27741  0.27741  0.71374  Biso   1.000  O 
  O3       1.0000 0.72259  0.00000  0.43633  Biso   1.000  O 
  O4       1.0000 0.00000  0.43633  0.72259  Biso   1.000  O 
  O5       1.0000 0.72259  0.43633  0.00000  Biso   1.000  O 
  O6       1.0000 0.27741  0.71374  0.27741  Biso   1.000  O 
  O7       1.0000 0.71374  0.27741  0.27741  Biso   1.000  O 
  O8       1.0000 0.43633  0.72259  0.00000  Biso   1.000  O 
  O9       1.0000 0.43633  0.00000  0.72259  Biso   1.000  O 
  O10      1.0000 0.28626  0.56367  0.56367  Biso   1.000  O 
  O11      1.0000 0.56367  0.56367  0.28626  Biso   1.000  O 
  O12      1.0000 0.56367  0.28626  0.56367  Biso   1.000  O 
  Te1      1.0000 0.00000  0.00000  0.00000  Biso   1.000  Te
