data_image0
_cell_length_a       7.75177
_cell_length_b       7.75177
_cell_length_c       7.75177
_cell_angle_alpha    96.6176
_cell_angle_beta     96.6176
_cell_angle_gamma    96.6176

_symmetry_space_group_name_H-M    "P 1"
_symmetry_int_tables_number       1

loop_
  _symmetry_equiv_pos_as_xyz
  'x, y, z'

loop_
  _atom_site_label
  _atom_site_occupancy
  _atom_site_fract_x
  _atom_site_fract_y
  _atom_site_fract_z
  _atom_site_thermal_displace_type
  _atom_site_B_iso_or_equiv
  _atom_site_type_symbol
  Al1      1.0000 0.01648  0.33056  0.92858  Biso   1.000  Al
  Al2      1.0000 0.33056  0.92858  0.01648  Biso   1.000  Al
  Al3      1.0000 0.92858  0.01648  0.33056  Biso   1.000  Al
  Al4      1.0000 0.83056  0.51648  0.42858  Biso   1.000  Al
  Al5      1.0000 0.51648  0.42858  0.83056  Biso   1.000  Al
  Al6      1.0000 0.42858  0.83056  0.51648  Biso   1.000  Al
  Al7      1.0000 0.98352  0.66944  0.07142  Biso   1.000  Al
  Al8      1.0000 0.66944  0.07142  0.98352  Biso   1.000  Al
  Al9      1.0000 0.07142  0.98352  0.66944  Biso   1.000  Al
  Al10     1.0000 0.16944  0.48352  0.57142  Biso   1.000  Al
  Al11     1.0000 0.48352  0.57142  0.16944  Biso   1.000  Al
  Al12     1.0000 0.57142  0.16944  0.48352  Biso   1.000  Al
  Ge1      1.0000 0.89760  0.25000  0.60240  Biso   1.000  Ge
  Ge2      1.0000 0.25000  0.60240  0.89760  Biso   1.000  Ge
  Ge3      1.0000 0.60240  0.89760  0.25000  Biso   1.000  Ge
  Ge4      1.0000 0.75000  0.39760  0.10240  Biso   1.000  Ge
  Ge5      1.0000 0.39760  0.10240  0.75000  Biso   1.000  Ge
  Ge6      1.0000 0.10240  0.75000  0.39760  Biso   1.000  Ge
  Ge7      1.0000 0.35718  0.35718  0.35718  Biso   1.000  Ge
  Ge8      1.0000 0.85718  0.85718  0.85718  Biso   1.000  Ge
  Ge9      1.0000 0.64282  0.64282  0.64282  Biso   1.000  Ge
  Ge10     1.0000 0.14282  0.14282  0.14282  Biso   1.000  Ge
