data_image0
_cell_length_a       8.17916
_cell_length_b       8.17916
_cell_length_c       8.17916
_cell_angle_alpha    109.471
_cell_angle_beta     109.471
_cell_angle_gamma    109.471

_symmetry_space_group_name_H-M    "P 1"
_symmetry_int_tables_number       1

loop_
  _symmetry_equiv_pos_as_xyz
  'x, y, z'

loop_
  _atom_site_label
  _atom_site_occupancy
  _atom_site_fract_x
  _atom_site_fract_y
  _atom_site_fract_z
  _atom_site_thermal_displace_type
  _atom_site_B_iso_or_equiv
  _atom_site_type_symbol
  Al1      1.0000 0.75000  0.25000  0.50000  Biso   1.000  Al
  Al2      1.0000 0.75000  0.50000  0.25000  Biso   1.000  Al
  Al3      1.0000 0.50000  0.25000  0.75000  Biso   1.000  Al
  Al4      1.0000 0.25000  0.50000  0.75000  Biso   1.000  Al
  Al5      1.0000 0.25000  0.75000  0.50000  Biso   1.000  Al
  Al6      1.0000 0.50000  0.75000  0.25000  Biso   1.000  Al
  O1       1.0000 0.00000  0.69513  0.38345  Biso   1.000  O 
  O2       1.0000 0.30487  0.30487  0.68832  Biso   1.000  O 
  O3       1.0000 0.69513  0.00000  0.38345  Biso   1.000  O 
  O4       1.0000 0.00000  0.38345  0.69513  Biso   1.000  O 
  O5       1.0000 0.69513  0.38345  0.00000  Biso   1.000  O 
  O6       1.0000 0.30487  0.68832  0.30487  Biso   1.000  O 
  O7       1.0000 0.68832  0.30487  0.30487  Biso   1.000  O 
  O8       1.0000 0.38345  0.69513  0.00000  Biso   1.000  O 
  O9       1.0000 0.38345  0.00000  0.69513  Biso   1.000  O 
  O10      1.0000 0.31168  0.61655  0.61655  Biso   1.000  O 
  O11      1.0000 0.61655  0.61655  0.31168  Biso   1.000  O 
  O12      1.0000 0.61655  0.31168  0.61655  Biso   1.000  O 
  Sr1      1.0000 0.00000  0.00000  0.59241  Biso   1.000  Sr
  Sr2      1.0000 0.00000  0.59241  0.00000  Biso   1.000  Sr
  Sr3      1.0000 0.59241  0.00000  0.00000  Biso   1.000  Sr
  Sr4      1.0000 0.40759  0.40759  0.40759  Biso   1.000  Sr
  Te1      1.0000 0.00000  0.00000  0.00000  Biso   1.000  Te
