data_image0
_cell_length_a       10.4621
_cell_length_b       10.4621
_cell_length_c       10.4621
_cell_angle_alpha    89.767
_cell_angle_beta     89.767
_cell_angle_gamma    89.767

_symmetry_space_group_name_H-M    "P 1"
_symmetry_int_tables_number       1

loop_
  _symmetry_equiv_pos_as_xyz
  'x, y, z'

loop_
  _atom_site_label
  _atom_site_occupancy
  _atom_site_fract_x
  _atom_site_fract_y
  _atom_site_fract_z
  _atom_site_thermal_displace_type
  _atom_site_B_iso_or_equiv
  _atom_site_type_symbol
  Te1      1.0000 0.16927  0.16927  0.16927  Biso   1.000  Te
  Te2      1.0000 0.83073  0.83073  0.83073  Biso   1.000  Te
  Te3      1.0000 0.82065  0.17935  1.00000  Biso   1.000  Te
  Te4      1.0000 0.17935  0.00000  0.82065  Biso   1.000  Te
  Te5      1.0000 0.00000  0.82065  0.17935  Biso   1.000  Te
  Te6      1.0000 0.91950  0.08050  0.50000  Biso   1.000  Te
  Te7      1.0000 0.08050  0.50000  0.91950  Biso   1.000  Te
  Te8      1.0000 0.50000  0.91950  0.08050  Biso   1.000  Te
  Te9      1.0000 0.30947  0.56027  0.24028  Biso   1.000  Te
  Te10     1.0000 0.69053  0.75972  0.43973  Biso   1.000  Te
  Te11     1.0000 0.43973  0.69053  0.75972  Biso   1.000  Te
  Te12     1.0000 0.75972  0.43973  0.69053  Biso   1.000  Te
  Te13     1.0000 0.56027  0.24028  0.30947  Biso   1.000  Te
  Te14     1.0000 0.24028  0.30947  0.56027  Biso   1.000  Te
  Te15     1.0000 0.92334  0.42248  0.32940  Biso   1.000  Te
  Te16     1.0000 0.07666  0.67060  0.57752  Biso   1.000  Te
  Te17     1.0000 0.57752  0.07666  0.67060  Biso   1.000  Te
  Te18     1.0000 0.67060  0.57752  0.07666  Biso   1.000  Te
  Te19     1.0000 0.42248  0.32940  0.92334  Biso   1.000  Te
  Te20     1.0000 0.32940  0.92334  0.42248  Biso   1.000  Te
  Al1      1.0000 0.42823  0.42823  0.42823  Biso   1.000  Al
  Al2      1.0000 0.57177  0.57177  0.57177  Biso   1.000  Al
  Al3      1.0000 0.83638  0.65414  0.25773  Biso   1.000  Al
  Al4      1.0000 0.16362  0.74227  0.34586  Biso   1.000  Al
  Al5      1.0000 0.34586  0.16362  0.74227  Biso   1.000  Al
  Al6      1.0000 0.74227  0.34586  0.16362  Biso   1.000  Al
  Al7      1.0000 0.65414  0.25773  0.83638  Biso   1.000  Al
  Al8      1.0000 0.25773  0.83638  0.65414  Biso   1.000  Al
  Al9      1.0000 0.11108  0.42133  0.15387  Biso   1.000  Al
  Al10     1.0000 0.88892  0.84613  0.57867  Biso   1.000  Al
  Al11     1.0000 0.57867  0.88892  0.84613  Biso   1.000  Al
  Al12     1.0000 0.84613  0.57867  0.88892  Biso   1.000  Al
  Al13     1.0000 0.42133  0.15387  0.11108  Biso   1.000  Al
  Al14     1.0000 0.15387  0.11108  0.42133  Biso   1.000  Al
