data_image0
_cell_length_a       4.96475
_cell_length_b       4.96475
_cell_length_c       10.0517
_cell_angle_alpha    80.0312
_cell_angle_beta     80.0312
_cell_angle_gamma    43.1887

_symmetry_space_group_name_H-M    "P 1"
_symmetry_int_tables_number       1

loop_
  _symmetry_equiv_pos_as_xyz
  'x, y, z'

loop_
  _atom_site_label
  _atom_site_occupancy
  _atom_site_fract_x
  _atom_site_fract_y
  _atom_site_fract_z
  _atom_site_thermal_displace_type
  _atom_site_B_iso_or_equiv
  _atom_site_type_symbol
  Al1      1.0000 0.81290  0.81290  0.27909  Biso   1.000  Al
  Al2      1.0000 0.18710  0.18710  0.72091  Biso   1.000  Al
  Al3      1.0000 0.72792  0.72792  0.90924  Biso   1.000  Al
  Al4      1.0000 0.27208  0.27208  0.09076  Biso   1.000  Al
  Al5      1.0000 0.63149  0.63149  0.54206  Biso   1.000  Al
  Al6      1.0000 0.36851  0.36851  0.45794  Biso   1.000  Al
  Al7      1.0000 0.53920  0.53920  0.17937  Biso   1.000  Al
  Al8      1.0000 0.46080  0.46080  0.82063  Biso   1.000  Al
  Mo1      1.0000 0.00000  0.00000  0.00000  Biso   1.000  Mo
  Mo2      1.0000 0.90680  0.90680  0.65907  Biso   1.000  Mo
  Mo3      1.0000 0.09320  0.09320  0.34093  Biso   1.000  Mo
