data_image0
_cell_length_a       13.8843
_cell_length_b       9.95636
_cell_length_c       7.00638
_cell_angle_alpha    88.8494
_cell_angle_beta     90
_cell_angle_gamma    90

_symmetry_space_group_name_H-M    "P 1"
_symmetry_int_tables_number       1

loop_
  _symmetry_equiv_pos_as_xyz
  'x, y, z'

loop_
  _atom_site_label
  _atom_site_occupancy
  _atom_site_fract_x
  _atom_site_fract_y
  _atom_site_fract_z
  _atom_site_thermal_displace_type
  _atom_site_B_iso_or_equiv
  _atom_site_type_symbol
  Ba1      1.0000 0.00000  0.00000  0.00000  Biso   1.000  Ba
  Ba2      1.0000 0.50000  0.50000  0.50000  Biso   1.000  Ba
  Ba3      1.0000 0.15887  0.62526  0.20177  Biso   1.000  Ba
  Ba4      1.0000 0.65887  0.87474  0.29823  Biso   1.000  Ba
  Ba5      1.0000 0.84113  0.37474  0.79823  Biso   1.000  Ba
  Ba6      1.0000 0.34113  0.12526  0.70177  Biso   1.000  Ba
  As1      1.0000 0.50091  0.81368  0.89363  Biso   1.000  As
  As2      1.0000 0.00091  0.68632  0.60637  Biso   1.000  As
  As3      1.0000 0.49909  0.18632  0.10637  Biso   1.000  As
  As4      1.0000 0.99909  0.31368  0.39363  Biso   1.000  As
  As5      1.0000 0.35511  0.85939  0.09963  Biso   1.000  As
  As6      1.0000 0.85511  0.64061  0.40037  Biso   1.000  As
  As7      1.0000 0.64489  0.14061  0.90037  Biso   1.000  As
  As8      1.0000 0.14489  0.35939  0.59963  Biso   1.000  As
  As9      1.0000 0.56125  0.17183  0.43268  Biso   1.000  As
  As10     1.0000 0.06125  0.32817  0.06732  Biso   1.000  As
  As11     1.0000 0.43875  0.82817  0.56732  Biso   1.000  As
  As12     1.0000 0.93875  0.67183  0.93268  Biso   1.000  As
  As13     1.0000 0.19135  0.02099  0.33004  Biso   1.000  As
  As14     1.0000 0.69135  0.47901  0.16996  Biso   1.000  As
  As15     1.0000 0.80865  0.97901  0.66996  Biso   1.000  As
  As16     1.0000 0.30865  0.52099  0.83004  Biso   1.000  As
  As17     1.0000 0.08019  0.11686  0.55492  Biso   1.000  As
  As18     1.0000 0.58019  0.38314  0.94508  Biso   1.000  As
  As19     1.0000 0.91981  0.88314  0.44508  Biso   1.000  As
  As20     1.0000 0.41981  0.61686  0.05492  Biso   1.000  As
  As21     1.0000 0.21894  0.86868  0.87942  Biso   1.000  As
  As22     1.0000 0.71894  0.63132  0.62058  Biso   1.000  As
  As23     1.0000 0.78106  0.13132  0.12058  Biso   1.000  As
  As24     1.0000 0.28106  0.36868  0.37942  Biso   1.000  As
  As25     1.0000 0.22077  0.22107  0.12516  Biso   1.000  As
  As26     1.0000 0.72077  0.27893  0.37484  Biso   1.000  As
  As27     1.0000 0.77923  0.77893  0.87484  Biso   1.000  As
  As28     1.0000 0.27923  0.72107  0.62516  Biso   1.000  As
