data_image0
_cell_length_a       5.69732
_cell_length_b       5.69732
_cell_length_c       5.74691
_cell_angle_alpha    90
_cell_angle_beta     90
_cell_angle_gamma    77.5349

_symmetry_space_group_name_H-M    "P 1"
_symmetry_int_tables_number       1

loop_
  _symmetry_equiv_pos_as_xyz
  'x, y, z'

loop_
  _atom_site_label
  _atom_site_occupancy
  _atom_site_fract_x
  _atom_site_fract_y
  _atom_site_fract_z
  _atom_site_thermal_displace_type
  _atom_site_B_iso_or_equiv
  _atom_site_type_symbol
  Na1      1.0000 0.02752  0.33389  0.25000  Biso   1.000  Na
  Na2      1.0000 0.33389  0.02752  0.75000  Biso   1.000  Na
  Na3      1.0000 0.97248  0.66611  0.75000  Biso   1.000  Na
  Na4      1.0000 0.66611  0.97248  0.25000  Biso   1.000  Na
  Au1      1.0000 0.50000  0.50000  0.50000  Biso   1.000  Au
  Au2      1.0000 0.50000  0.50000  0.00000  Biso   1.000  Au
  As1      1.0000 0.20762  0.79238  0.25000  Biso   1.000  As
  As2      1.0000 0.79238  0.20762  0.75000  Biso   1.000  As
