data_image0
_cell_length_a       5.1033
_cell_length_b       5.1033
_cell_length_c       7.91643
_cell_angle_alpha    85.0593
_cell_angle_beta     85.0593
_cell_angle_gamma    72.7881

_symmetry_space_group_name_H-M    "P 1"
_symmetry_int_tables_number       1

loop_
  _symmetry_equiv_pos_as_xyz
  'x, y, z'

loop_
  _atom_site_label
  _atom_site_occupancy
  _atom_site_fract_x
  _atom_site_fract_y
  _atom_site_fract_z
  _atom_site_thermal_displace_type
  _atom_site_B_iso_or_equiv
  _atom_site_type_symbol
  Au1      1.0000 1.00000  0.50000  0.50000  Biso   1.000  Au
  Au2      1.0000 0.50000  1.00000  0.00000  Biso   1.000  Au
  As1      1.0000 0.93984  0.06016  0.25000  Biso   1.000  As
  As2      1.0000 0.06016  0.93984  0.75000  Biso   1.000  As
  O1       1.0000 0.75008  0.20142  0.07440  Biso   1.000  O 
  O2       1.0000 0.79858  0.24992  0.42560  Biso   1.000  O 
  O3       1.0000 0.24992  0.79858  0.92560  Biso   1.000  O 
  O4       1.0000 0.20142  0.75008  0.57440  Biso   1.000  O 
  O5       1.0000 0.26956  0.09335  0.21680  Biso   1.000  O 
  O6       1.0000 0.90665  0.73044  0.28320  Biso   1.000  O 
  O7       1.0000 0.73044  0.90665  0.78320  Biso   1.000  O 
  O8       1.0000 0.09335  0.26956  0.71680  Biso   1.000  O 
