data_image0
_cell_length_a       8.67094
_cell_length_b       8.67094
_cell_length_c       8.67094
_cell_angle_alpha    90
_cell_angle_beta     90
_cell_angle_gamma    90

_symmetry_space_group_name_H-M    "P 1"
_symmetry_int_tables_number       1

loop_
  _symmetry_equiv_pos_as_xyz
  'x, y, z'

loop_
  _atom_site_label
  _atom_site_occupancy
  _atom_site_fract_x
  _atom_site_fract_y
  _atom_site_fract_z
  _atom_site_thermal_displace_type
  _atom_site_B_iso_or_equiv
  _atom_site_type_symbol
  Hg1      1.0000 0.05265  0.60514  0.14295  Biso   1.000  Hg
  Hg2      1.0000 0.85705  0.55265  0.89486  Biso   1.000  Hg
  Hg3      1.0000 0.10514  0.35705  0.94735  Biso   1.000  Hg
  Hg4      1.0000 0.55265  0.89486  0.85705  Biso   1.000  Hg
  Hg5      1.0000 0.35705  0.94735  0.10514  Biso   1.000  Hg
  Hg6      1.0000 0.60514  0.14295  0.05265  Biso   1.000  Hg
  Hg7      1.0000 0.94735  0.10514  0.35705  Biso   1.000  Hg
  Hg8      1.0000 0.14295  0.05265  0.60514  Biso   1.000  Hg
  Hg9      1.0000 0.89486  0.85705  0.55265  Biso   1.000  Hg
  Hg10     1.0000 0.44735  0.39486  0.64295  Biso   1.000  Hg
  Hg11     1.0000 0.64295  0.44735  0.39486  Biso   1.000  Hg
  Hg12     1.0000 0.39486  0.64295  0.44735  Biso   1.000  Hg
  Br1      1.0000 0.26402  0.76402  0.73598  Biso   1.000  Br
  Br2      1.0000 0.76402  0.73598  0.26402  Biso   1.000  Br
  Br3      1.0000 0.73598  0.26402  0.76402  Biso   1.000  Br
  Br4      1.0000 0.23598  0.23598  0.23598  Biso   1.000  Br
  As1      1.0000 0.51769  0.01769  0.48231  Biso   1.000  As
  As2      1.0000 0.01769  0.48231  0.51769  Biso   1.000  As
  As3      1.0000 0.48231  0.51769  0.01769  Biso   1.000  As
  As4      1.0000 0.98231  0.98231  0.98231  Biso   1.000  As
  O1       1.0000 0.63133  0.13133  0.36867  Biso   1.000  O 
  O2       1.0000 0.13133  0.36867  0.63133  Biso   1.000  O 
  O3       1.0000 0.36867  0.63133  0.13133  Biso   1.000  O 
  O4       1.0000 0.86867  0.86867  0.86867  Biso   1.000  O 
  O5       1.0000 0.62523  0.89841  0.60419  Biso   1.000  O 
  O6       1.0000 0.39581  0.12523  0.60159  Biso   1.000  O 
  O7       1.0000 0.39841  0.89581  0.37477  Biso   1.000  O 
  O8       1.0000 0.12523  0.60159  0.39581  Biso   1.000  O 
  O9       1.0000 0.89581  0.37477  0.39841  Biso   1.000  O 
  O10      1.0000 0.89841  0.60419  0.62523  Biso   1.000  O 
  O11      1.0000 0.37477  0.39841  0.89581  Biso   1.000  O 
  O12      1.0000 0.60419  0.62523  0.89841  Biso   1.000  O 
  O13      1.0000 0.60159  0.39581  0.12523  Biso   1.000  O 
  O14      1.0000 0.87477  0.10159  0.10419  Biso   1.000  O 
  O15      1.0000 0.10419  0.87477  0.10159  Biso   1.000  O 
  O16      1.0000 0.10159  0.10419  0.87477  Biso   1.000  O 
