data_image0
_cell_length_a       4.35698
_cell_length_b       4.35698
_cell_length_c       9.70547
_cell_angle_alpha    90
_cell_angle_beta     90
_cell_angle_gamma    90

_symmetry_space_group_name_H-M    "P 1"
_symmetry_int_tables_number       1

loop_
  _symmetry_equiv_pos_as_xyz
  'x, y, z'

loop_
  _atom_site_label
  _atom_site_occupancy
  _atom_site_fract_x
  _atom_site_fract_y
  _atom_site_fract_z
  _atom_site_thermal_displace_type
  _atom_site_B_iso_or_equiv
  _atom_site_type_symbol
  Ba1      1.0000 0.00000  0.50000  0.65924  Biso   1.000  Ba
  Ba2      1.0000 0.50000  0.00000  0.34076  Biso   1.000  Ba
  Mn1      1.0000 0.50000  0.50000  0.00000  Biso   1.000  Mn
  Mn2      1.0000 0.00000  0.00000  0.00000  Biso   1.000  Mn
  As1      1.0000 0.00000  0.50000  0.15771  Biso   1.000  As
  As2      1.0000 0.50000  0.00000  0.84229  Biso   1.000  As
  F1       1.0000 0.50000  0.50000  0.50000  Biso   1.000  F 
  F2       1.0000 0.00000  0.00000  0.50000  Biso   1.000  F 
