data_image0
_cell_length_a       4.77098
_cell_length_b       11.1347
_cell_length_c       10.0552
_cell_angle_alpha    90
_cell_angle_beta     90
_cell_angle_gamma    90

_symmetry_space_group_name_H-M    "P 1"
_symmetry_int_tables_number       1

loop_
  _symmetry_equiv_pos_as_xyz
  'x, y, z'

loop_
  _atom_site_label
  _atom_site_occupancy
  _atom_site_fract_x
  _atom_site_fract_y
  _atom_site_fract_z
  _atom_site_thermal_displace_type
  _atom_site_B_iso_or_equiv
  _atom_site_type_symbol
  Hg1      1.0000 0.50000  0.25000  0.73527  Biso   1.000  Hg
  Hg2      1.0000 0.50000  0.75000  0.26473  Biso   1.000  Hg
  Hg3      1.0000 0.50000  0.50000  0.00000  Biso   1.000  Hg
  Hg4      1.0000 0.50000  0.00000  0.00000  Biso   1.000  Hg
  Cd1      1.0000 0.00000  0.57624  0.71568  Biso   1.000  Cd
  Cd2      1.0000 0.00000  0.42376  0.28432  Biso   1.000  Cd
  Cd3      1.0000 0.00000  0.92376  0.71568  Biso   1.000  Cd
  Cd4      1.0000 0.00000  0.07624  0.28432  Biso   1.000  Cd
  Br1      1.0000 0.00000  0.75000  0.52060  Biso   1.000  Br
  Br2      1.0000 0.00000  0.25000  0.47940  Biso   1.000  Br
  Br3      1.0000 0.00000  0.25000  0.08005  Biso   1.000  Br
  Br4      1.0000 0.00000  0.75000  0.91995  Biso   1.000  Br
  As1      1.0000 0.50000  0.47808  0.74666  Biso   1.000  As
  As2      1.0000 0.50000  0.52192  0.25334  Biso   1.000  As
  As3      1.0000 0.50000  0.02192  0.74666  Biso   1.000  As
  As4      1.0000 0.50000  0.97808  0.25334  Biso   1.000  As
