data_image0
_cell_length_a       7.56339
_cell_length_b       7.56339
_cell_length_c       9.63294
_cell_angle_alpha    90
_cell_angle_beta     90
_cell_angle_gamma    120

_symmetry_space_group_name_H-M    "P 1"
_symmetry_int_tables_number       1

loop_
  _symmetry_equiv_pos_as_xyz
  'x, y, z'

loop_
  _atom_site_label
  _atom_site_occupancy
  _atom_site_fract_x
  _atom_site_fract_y
  _atom_site_fract_z
  _atom_site_thermal_displace_type
  _atom_site_B_iso_or_equiv
  _atom_site_type_symbol
  Br1      1.0000 0.33333  0.66667  0.52867  Biso   1.000  Br
  Br2      1.0000 0.66667  0.33333  0.02867  Biso   1.000  Br
  Hg1      1.0000 0.50356  0.49644  0.74416  Biso   1.000  Hg
  Hg2      1.0000 0.50356  0.00711  0.74416  Biso   1.000  Hg
  Hg3      1.0000 0.99289  0.49644  0.74416  Biso   1.000  Hg
  Hg4      1.0000 0.49644  0.50356  0.24416  Biso   1.000  Hg
  Hg5      1.0000 0.49644  0.99289  0.24416  Biso   1.000  Hg
  Hg6      1.0000 0.00711  0.50356  0.24416  Biso   1.000  Hg
  S1       1.0000 0.70187  0.85094  0.85872  Biso   1.000  S 
  S2       1.0000 0.14906  0.85094  0.85872  Biso   1.000  S 
  S3       1.0000 0.14906  0.29813  0.85872  Biso   1.000  S 
  S4       1.0000 0.29813  0.14906  0.35872  Biso   1.000  S 
  S5       1.0000 0.85094  0.14906  0.35872  Biso   1.000  S 
  S6       1.0000 0.85094  0.70187  0.35872  Biso   1.000  S 
  S7       1.0000 0.66667  0.33333  0.61105  Biso   1.000  S 
  S8       1.0000 0.33333  0.66667  0.11105  Biso   1.000  S 
  As1      1.0000 0.00000  0.00000  0.73165  Biso   1.000  As
  As2      1.0000 0.00000  0.00000  0.23165  Biso   1.000  As
