data_image0
_cell_length_a       9.23718
_cell_length_b       15.2602
_cell_length_c       12.2427
_cell_angle_alpha    50.3487
_cell_angle_beta     90
_cell_angle_gamma    90

_symmetry_space_group_name_H-M    "P 1"
_symmetry_int_tables_number       1

loop_
  _symmetry_equiv_pos_as_xyz
  'x, y, z'

loop_
  _atom_site_label
  _atom_site_occupancy
  _atom_site_fract_x
  _atom_site_fract_y
  _atom_site_fract_z
  _atom_site_thermal_displace_type
  _atom_site_B_iso_or_equiv
  _atom_site_type_symbol
  Br1      1.0000 0.50000  0.50000  0.00000  Biso   1.000  Br
  Br2      1.0000 0.50000  0.00000  0.50000  Biso   1.000  Br
  Br3      1.0000 0.00000  0.00000  0.00000  Biso   1.000  Br
  Br4      1.0000 0.00000  0.50000  0.50000  Biso   1.000  Br
  Br5      1.0000 0.28106  0.58274  0.83514  Biso   1.000  Br
  Br6      1.0000 0.71894  0.08274  0.33514  Biso   1.000  Br
  Br7      1.0000 0.71894  0.41726  0.16486  Biso   1.000  Br
  Br8      1.0000 0.28106  0.91726  0.66486  Biso   1.000  Br
  Br9      1.0000 0.21894  0.08274  0.83514  Biso   1.000  Br
  Br10     1.0000 0.21894  0.41726  0.66486  Biso   1.000  Br
  Br11     1.0000 0.78106  0.91726  0.16486  Biso   1.000  Br
  Br12     1.0000 0.78106  0.58274  0.33514  Biso   1.000  Br
  Br13     1.0000 0.37627  0.67898  0.61077  Biso   1.000  Br
  Br14     1.0000 0.62373  0.17898  0.11077  Biso   1.000  Br
  Br15     1.0000 0.62373  0.32102  0.38923  Biso   1.000  Br
  Br16     1.0000 0.37627  0.82102  0.88923  Biso   1.000  Br
  Br17     1.0000 0.12373  0.17898  0.61077  Biso   1.000  Br
  Br18     1.0000 0.12373  0.32102  0.88923  Biso   1.000  Br
  Br19     1.0000 0.87627  0.82102  0.38923  Biso   1.000  Br
  Br20     1.0000 0.87627  0.67898  0.11077  Biso   1.000  Br
  As1      1.0000 0.15316  0.25000  0.25000  Biso   1.000  As
  As2      1.0000 0.84684  0.75000  0.75000  Biso   1.000  As
  As3      1.0000 0.34684  0.75000  0.25000  Biso   1.000  As
  As4      1.0000 0.65316  0.25000  0.75000  Biso   1.000  As
  F1       1.0000 0.01585  0.25999  0.34559  Biso   1.000  F 
  F2       1.0000 0.98415  0.75999  0.84559  Biso   1.000  F 
  F3       1.0000 0.98415  0.74001  0.65441  Biso   1.000  F 
  F4       1.0000 0.01585  0.24001  0.15441  Biso   1.000  F 
  F5       1.0000 0.48415  0.75999  0.34559  Biso   1.000  F 
  F6       1.0000 0.48415  0.74001  0.15441  Biso   1.000  F 
  F7       1.0000 0.51585  0.24001  0.65441  Biso   1.000  F 
  F8       1.0000 0.51585  0.25999  0.84559  Biso   1.000  F 
  F9       1.0000 0.28789  0.26103  0.34271  Biso   1.000  F 
  F10      1.0000 0.71211  0.76103  0.84271  Biso   1.000  F 
  F11      1.0000 0.71211  0.73897  0.65729  Biso   1.000  F 
  F12      1.0000 0.28789  0.23897  0.15729  Biso   1.000  F 
  F13      1.0000 0.21211  0.76103  0.34271  Biso   1.000  F 
  F14      1.0000 0.21211  0.73897  0.15729  Biso   1.000  F 
  F15      1.0000 0.78789  0.23897  0.65729  Biso   1.000  F 
  F16      1.0000 0.78789  0.26103  0.84271  Biso   1.000  F 
  F17      1.0000 0.14816  0.40069  0.11626  Biso   1.000  F 
  F18      1.0000 0.85184  0.90069  0.61626  Biso   1.000  F 
  F19      1.0000 0.85184  0.59931  0.88374  Biso   1.000  F 
  F20      1.0000 0.14816  0.09931  0.38374  Biso   1.000  F 
  F21      1.0000 0.35184  0.90069  0.11626  Biso   1.000  F 
  F22      1.0000 0.35184  0.59931  0.38374  Biso   1.000  F 
  F23      1.0000 0.64816  0.09931  0.88374  Biso   1.000  F 
  F24      1.0000 0.64816  0.40069  0.61626  Biso   1.000  F 
