data_image0
_cell_length_a       5.54925
_cell_length_b       5.54925
_cell_length_c       13.81
_cell_angle_alpha    90
_cell_angle_beta     90
_cell_angle_gamma    120

_symmetry_space_group_name_H-M    "P 1"
_symmetry_int_tables_number       1

loop_
  _symmetry_equiv_pos_as_xyz
  'x, y, z'

loop_
  _atom_site_label
  _atom_site_occupancy
  _atom_site_fract_x
  _atom_site_fract_y
  _atom_site_fract_z
  _atom_site_thermal_displace_type
  _atom_site_B_iso_or_equiv
  _atom_site_type_symbol
  Ba1      1.0000 0.33333  0.66667  0.09957  Biso   1.000  Ba
  Ba2      1.0000 0.33333  0.66667  0.40043  Biso   1.000  Ba
  Ba3      1.0000 0.66667  0.33333  0.59957  Biso   1.000  Ba
  Ba4      1.0000 0.66667  0.33334  0.90043  Biso   1.000  Ba
  Ba5      1.0000 1.00000  0.00000  0.25000  Biso   1.000  Ba
  Ba6      1.0000 0.00000  0.00000  0.75000  Biso   1.000  Ba
  As1      1.0000 0.00000  0.00000  0.00000  Biso   1.000  As
  As2      1.0000 1.00000  0.00000  0.50000  Biso   1.000  As
  O1       1.0000 0.52139  0.04278  0.25000  Biso   1.000  O 
  O2       1.0000 0.52139  0.47861  0.25000  Biso   1.000  O 
  O3       1.0000 0.95722  0.47861  0.25000  Biso   1.000  O 
  O4       1.0000 0.47861  0.52139  0.75000  Biso   1.000  O 
  O5       1.0000 0.47861  0.95723  0.75000  Biso   1.000  O 
  O6       1.0000 0.04278  0.52139  0.75000  Biso   1.000  O 
  B1       1.0000 0.33333  0.66667  0.75000  Biso   1.000  B 
  B2       1.0000 0.66667  0.33333  0.25000  Biso   1.000  B 
