data_image0
_cell_length_a       4.26089
_cell_length_b       4.26089
_cell_length_c       9.59439
_cell_angle_alpha    90
_cell_angle_beta     90
_cell_angle_gamma    90

_symmetry_space_group_name_H-M    "P 1"
_symmetry_int_tables_number       1

loop_
  _symmetry_equiv_pos_as_xyz
  'x, y, z'

loop_
  _atom_site_label
  _atom_site_occupancy
  _atom_site_fract_x
  _atom_site_fract_y
  _atom_site_fract_z
  _atom_site_thermal_displace_type
  _atom_site_B_iso_or_equiv
  _atom_site_type_symbol
  Ba1      1.0000 0.00000  0.50000  0.83441  Biso   1.000  Ba
  Ba2      1.0000 0.50000  0.00000  0.16559  Biso   1.000  Ba
  F1       1.0000 0.50000  0.50000  0.00000  Biso   1.000  F 
  F2       1.0000 0.00000  0.00000  0.00000  Biso   1.000  F 
  As1      1.0000 0.00000  0.50000  0.34779  Biso   1.000  As
  As2      1.0000 0.50000  0.00000  0.65221  Biso   1.000  As
  Zn1      1.0000 0.50000  0.50000  0.50000  Biso   1.000  Zn
  Zn2      1.0000 0.00000  0.00000  0.50000  Biso   1.000  Zn
