data_image0
_cell_length_a       7.87649
_cell_length_b       7.87649
_cell_length_c       10.1531
_cell_angle_alpha    90
_cell_angle_beta     90
_cell_angle_gamma    120

_symmetry_space_group_name_H-M    "P 1"
_symmetry_int_tables_number       1

loop_
  _symmetry_equiv_pos_as_xyz
  'x, y, z'

loop_
  _atom_site_label
  _atom_site_occupancy
  _atom_site_fract_x
  _atom_site_fract_y
  _atom_site_fract_z
  _atom_site_thermal_displace_type
  _atom_site_B_iso_or_equiv
  _atom_site_type_symbol
  Br1      1.0000 0.33333  0.66667  0.53887  Biso   1.000  Br
  Br2      1.0000 0.66667  0.33333  0.03887  Biso   1.000  Br
  Hg1      1.0000 0.50114  0.49886  0.73964  Biso   1.000  Hg
  Hg2      1.0000 0.50114  0.00228  0.73964  Biso   1.000  Hg
  Hg3      1.0000 0.99772  0.49886  0.73964  Biso   1.000  Hg
  Hg4      1.0000 0.49886  0.50114  0.23964  Biso   1.000  Hg
  Hg5      1.0000 0.49886  0.99772  0.23964  Biso   1.000  Hg
  Hg6      1.0000 0.00228  0.50114  0.23964  Biso   1.000  Hg
  Se1      1.0000 0.69757  0.84878  0.86167  Biso   1.000  Se
  Se2      1.0000 0.15122  0.84878  0.86167  Biso   1.000  Se
  Se3      1.0000 0.15122  0.30243  0.86167  Biso   1.000  Se
  Se4      1.0000 0.30243  0.15122  0.36167  Biso   1.000  Se
  Se5      1.0000 0.84878  0.15122  0.36167  Biso   1.000  Se
  Se6      1.0000 0.84878  0.69757  0.36167  Biso   1.000  Se
  Se7      1.0000 0.66667  0.33333  0.60903  Biso   1.000  Se
  Se8      1.0000 0.33333  0.66667  0.10903  Biso   1.000  Se
  As1      1.0000 0.00000  0.00000  0.73227  Biso   1.000  As
  As2      1.0000 0.00000  0.00000  0.23227  Biso   1.000  As
