data_image0
_cell_length_a       5.38396
_cell_length_b       7.65499
_cell_length_c       12.2852
_cell_angle_alpha    90
_cell_angle_beta     90
_cell_angle_gamma    90

_symmetry_space_group_name_H-M    "P 1"
_symmetry_int_tables_number       1

loop_
  _symmetry_equiv_pos_as_xyz
  'x, y, z'

loop_
  _atom_site_label
  _atom_site_occupancy
  _atom_site_fract_x
  _atom_site_fract_y
  _atom_site_fract_z
  _atom_site_thermal_displace_type
  _atom_site_B_iso_or_equiv
  _atom_site_type_symbol
  Bi1      1.0000 0.75000  0.64943  0.94065  Biso   1.000  Bi
  Bi2      1.0000 0.75000  0.85057  0.44065  Biso   1.000  Bi
  Bi3      1.0000 0.25000  0.35057  0.05935  Biso   1.000  Bi
  Bi4      1.0000 0.25000  0.14943  0.55935  Biso   1.000  Bi
  Cu1      1.0000 0.75000  0.54227  0.19548  Biso   1.000  Cu
  Cu2      1.0000 0.75000  0.95773  0.69548  Biso   1.000  Cu
  Cu3      1.0000 0.25000  0.45773  0.80452  Biso   1.000  Cu
  Cu4      1.0000 0.25000  0.04227  0.30452  Biso   1.000  Cu
  Cu5      1.0000 0.75000  0.21730  0.87285  Biso   1.000  Cu
  Cu6      1.0000 0.75000  0.28270  0.37285  Biso   1.000  Cu
  Cu7      1.0000 0.25000  0.78270  0.12715  Biso   1.000  Cu
  Cu8      1.0000 0.25000  0.71730  0.62715  Biso   1.000  Cu
  As1      1.0000 0.75000  0.02431  0.12626  Biso   1.000  As
  As2      1.0000 0.75000  0.47569  0.62626  Biso   1.000  As
  As3      1.0000 0.25000  0.97569  0.87374  Biso   1.000  As
  As4      1.0000 0.25000  0.52431  0.37374  Biso   1.000  As
  O1       1.0000 0.75000  0.93340  0.99955  Biso   1.000  O 
  O2       1.0000 0.75000  0.56660  0.49955  Biso   1.000  O 
  O3       1.0000 0.25000  0.06660  0.00045  Biso   1.000  O 
  O4       1.0000 0.25000  0.43340  0.50045  Biso   1.000  O 
  O5       1.0000 0.50268  0.61163  0.09132  Biso   1.000  O 
  O6       1.0000 0.99732  0.88837  0.59132  Biso   1.000  O 
  O7       1.0000 0.00268  0.38837  0.90868  Biso   1.000  O 
  O8       1.0000 0.49732  0.11163  0.40868  Biso   1.000  O 
  O9       1.0000 0.49732  0.38837  0.90868  Biso   1.000  O 
  O10      1.0000 0.00268  0.11163  0.40868  Biso   1.000  O 
  O11      1.0000 0.99732  0.61163  0.09132  Biso   1.000  O 
  O12      1.0000 0.50268  0.88837  0.59132  Biso   1.000  O 
  O13      1.0000 0.50010  0.55799  0.70076  Biso   1.000  O 
  O14      1.0000 0.99990  0.94201  0.20076  Biso   1.000  O 
  O15      1.0000 0.00010  0.44201  0.29924  Biso   1.000  O 
  O16      1.0000 0.49990  0.05799  0.79924  Biso   1.000  O 
  O17      1.0000 0.49990  0.44201  0.29924  Biso   1.000  O 
  O18      1.0000 0.00010  0.05799  0.79924  Biso   1.000  O 
  O19      1.0000 0.99990  0.55799  0.70076  Biso   1.000  O 
  O20      1.0000 0.50010  0.94201  0.20076  Biso   1.000  O 
  O21      1.0000 0.25000  0.75131  0.88440  Biso   1.000  O 
  O22      1.0000 0.25000  0.74869  0.38440  Biso   1.000  O 
  O23      1.0000 0.75000  0.24869  0.11560  Biso   1.000  O 
  O24      1.0000 0.75000  0.25131  0.61560  Biso   1.000  O 
