data_image0
_cell_length_a       6.95965
_cell_length_b       6.95965
_cell_length_c       6.95965
_cell_angle_alpha    136.597
_cell_angle_beta     136.597
_cell_angle_gamma    63.059

_symmetry_space_group_name_H-M    "P 1"
_symmetry_int_tables_number       1

loop_
  _symmetry_equiv_pos_as_xyz
  'x, y, z'

loop_
  _atom_site_label
  _atom_site_occupancy
  _atom_site_fract_x
  _atom_site_fract_y
  _atom_site_fract_z
  _atom_site_thermal_displace_type
  _atom_site_B_iso_or_equiv
  _atom_site_type_symbol
  As1      1.0000 0.75000  0.25000  0.50000  Biso   1.000  As
  As2      1.0000 0.00000  0.00000  0.00000  Biso   1.000  As
  Bi1      1.0000 0.25000  0.75000  0.50000  Biso   1.000  Bi
  Bi2      1.0000 0.50000  0.50000  0.00000  Biso   1.000  Bi
  O1       1.0000 0.57982  0.46948  0.39383  Biso   1.000  O 
  O2       1.0000 0.07565  0.18598  0.60617  Biso   1.000  O 
  O3       1.0000 0.67435  0.06402  0.89383  Biso   1.000  O 
  O4       1.0000 0.17018  0.78052  0.10617  Biso   1.000  O 
  O5       1.0000 0.53052  0.92435  0.11034  Biso   1.000  O 
  O6       1.0000 0.81402  0.42018  0.88966  Biso   1.000  O 
  O7       1.0000 0.93598  0.82982  0.61034  Biso   1.000  O 
  O8       1.0000 0.21948  0.32565  0.38966  Biso   1.000  O 
