data_image0
_cell_length_a       9.02727
_cell_length_b       9.32775
_cell_length_c       12.6495
_cell_angle_alpha    90
_cell_angle_beta     90
_cell_angle_gamma    90

_symmetry_space_group_name_H-M    "P 1"
_symmetry_int_tables_number       1

loop_
  _symmetry_equiv_pos_as_xyz
  'x, y, z'

loop_
  _atom_site_label
  _atom_site_occupancy
  _atom_site_fract_x
  _atom_site_fract_y
  _atom_site_fract_z
  _atom_site_thermal_displace_type
  _atom_site_B_iso_or_equiv
  _atom_site_type_symbol
  Ba1      1.0000 0.99455  0.13827  0.67347  Biso   1.000  Ba
  Ba2      1.0000 0.50545  0.36173  0.17347  Biso   1.000  Ba
  Ba3      1.0000 0.49455  0.86173  0.32653  Biso   1.000  Ba
  Ba4      1.0000 0.00545  0.63827  0.82653  Biso   1.000  Ba
  Ba5      1.0000 0.00545  0.86173  0.32653  Biso   1.000  Ba
  Ba6      1.0000 0.49455  0.63827  0.82653  Biso   1.000  Ba
  Ba7      1.0000 0.50545  0.13827  0.67347  Biso   1.000  Ba
  Ba8      1.0000 0.99455  0.36173  0.17347  Biso   1.000  Ba
  Ga1      1.0000 0.25000  0.83915  0.59655  Biso   1.000  Ga
  Ga2      1.0000 0.25000  0.66085  0.09655  Biso   1.000  Ga
  Ga3      1.0000 0.75000  0.16085  0.40345  Biso   1.000  Ga
  Ga4      1.0000 0.75000  0.33915  0.90345  Biso   1.000  Ga
  As1      1.0000 0.25000  0.49659  0.53212  Biso   1.000  As
  As2      1.0000 0.25000  0.00341  0.03212  Biso   1.000  As
  As3      1.0000 0.75000  0.50341  0.46788  Biso   1.000  As
  As4      1.0000 0.75000  0.99659  0.96788  Biso   1.000  As
  Se1      1.0000 0.04386  0.67209  0.55678  Biso   1.000  Se
  Se2      1.0000 0.45614  0.82791  0.05678  Biso   1.000  Se
  Se3      1.0000 0.54386  0.32791  0.44322  Biso   1.000  Se
  Se4      1.0000 0.95614  0.17209  0.94322  Biso   1.000  Se
  Se5      1.0000 0.95614  0.32791  0.44322  Biso   1.000  Se
  Se6      1.0000 0.54386  0.17209  0.94322  Biso   1.000  Se
  Se7      1.0000 0.45614  0.67209  0.55678  Biso   1.000  Se
  Se8      1.0000 0.04386  0.82791  0.05678  Biso   1.000  Se
  Se9      1.0000 0.75000  0.95568  0.51646  Biso   1.000  Se
  Se10     1.0000 0.75000  0.54432  0.01646  Biso   1.000  Se
  Se11     1.0000 0.25000  0.04432  0.48354  Biso   1.000  Se
  Se12     1.0000 0.25000  0.45568  0.98354  Biso   1.000  Se
  Se13     1.0000 0.25000  0.91135  0.78023  Biso   1.000  Se
  Se14     1.0000 0.25000  0.58865  0.28023  Biso   1.000  Se
  Se15     1.0000 0.75000  0.08865  0.21977  Biso   1.000  Se
  Se16     1.0000 0.75000  0.41135  0.71977  Biso   1.000  Se
  Se17     1.0000 0.25000  0.40333  0.71316  Biso   1.000  Se
  Se18     1.0000 0.25000  0.09667  0.21316  Biso   1.000  Se
  Se19     1.0000 0.75000  0.59667  0.28684  Biso   1.000  Se
  Se20     1.0000 0.75000  0.90333  0.78684  Biso   1.000  Se
