data_image0
_cell_length_a       10.3421
_cell_length_b       5.86513
_cell_length_c       9.03916
_cell_angle_alpha    89.6507
_cell_angle_beta     90
_cell_angle_gamma    90

_symmetry_space_group_name_H-M    "P 1"
_symmetry_int_tables_number       1

loop_
  _symmetry_equiv_pos_as_xyz
  'x, y, z'

loop_
  _atom_site_label
  _atom_site_occupancy
  _atom_site_fract_x
  _atom_site_fract_y
  _atom_site_fract_z
  _atom_site_thermal_displace_type
  _atom_site_B_iso_or_equiv
  _atom_site_type_symbol
  Ba1      1.0000 0.30631  0.35905  0.58615  Biso   1.000  Ba
  Ba2      1.0000 0.80631  0.64094  0.91385  Biso   1.000  Ba
  Ba3      1.0000 0.69369  0.64095  0.41385  Biso   1.000  Ba
  Ba4      1.0000 0.19369  0.35905  0.08615  Biso   1.000  Ba
  As1      1.0000 0.88538  0.15446  0.21922  Biso   1.000  As
  As2      1.0000 0.38538  0.84554  0.28078  Biso   1.000  As
  As3      1.0000 0.11462  0.84554  0.78078  Biso   1.000  As
  As4      1.0000 0.61462  0.15446  0.71922  Biso   1.000  As
  V1       1.0000 0.90881  0.14561  0.58569  Biso   1.000  V 
  V2       1.0000 0.40881  0.85439  0.91431  Biso   1.000  V 
  V3       1.0000 0.09119  0.85439  0.41431  Biso   1.000  V 
  V4       1.0000 0.59119  0.14561  0.08569  Biso   1.000  V 
  O1       1.0000 0.86159  0.38856  0.66157  Biso   1.000  O 
  O2       1.0000 0.36159  0.61144  0.83843  Biso   1.000  O 
  O3       1.0000 0.13841  0.61144  0.33843  Biso   1.000  O 
  O4       1.0000 0.63841  0.38856  0.16157  Biso   1.000  O 
  O5       1.0000 0.06510  0.18343  0.52537  Biso   1.000  O 
  O6       1.0000 0.56510  0.81657  0.97463  Biso   1.000  O 
  O7       1.0000 0.93490  0.81657  0.47463  Biso   1.000  O 
  O8       1.0000 0.43490  0.18343  0.02537  Biso   1.000  O 
  O9       1.0000 0.82545  0.22197  0.39416  Biso   1.000  O 
  O10      1.0000 0.32545  0.77803  0.10584  Biso   1.000  O 
  O11      1.0000 0.17455  0.77803  0.60584  Biso   1.000  O 
  O12      1.0000 0.67455  0.22197  0.89416  Biso   1.000  O 
  O13      1.0000 0.96571  0.98525  0.76647  Biso   1.000  O 
  O14      1.0000 0.46571  0.01475  0.73353  Biso   1.000  O 
  O15      1.0000 0.03429  0.01475  0.23353  Biso   1.000  O 
  O16      1.0000 0.53429  0.98525  0.26647  Biso   1.000  O 
  O17      1.0000 0.72725  0.97403  0.64012  Biso   1.000  O 
  O18      1.0000 0.22725  0.02597  0.85988  Biso   1.000  O 
  O19      1.0000 0.27275  0.02597  0.35988  Biso   1.000  O 
  O20      1.0000 0.77275  0.97403  0.14012  Biso   1.000  O 
  O21      1.0000 0.92265  0.39090  0.12050  Biso   1.000  O 
  O22      1.0000 0.42265  0.60910  0.37950  Biso   1.000  O 
  O23      1.0000 0.07735  0.60910  0.87950  Biso   1.000  O 
  O24      1.0000 0.57735  0.39090  0.62050  Biso   1.000  O 
