data_image0
_cell_length_a       5.329
_cell_length_b       5.329
_cell_length_c       5.329
_cell_angle_alpha    70.5789
_cell_angle_beta     70.5789
_cell_angle_gamma    70.5789

_symmetry_space_group_name_H-M    "P 1"
_symmetry_int_tables_number       1

loop_
  _symmetry_equiv_pos_as_xyz
  'x, y, z'

loop_
  _atom_site_label
  _atom_site_occupancy
  _atom_site_fract_x
  _atom_site_fract_y
  _atom_site_fract_z
  _atom_site_thermal_displace_type
  _atom_site_B_iso_or_equiv
  _atom_site_type_symbol
  As1      1.0000 0.39896  0.39896  0.39896  Biso   1.000  As
  As2      1.0000 0.60104  0.60104  0.60104  Biso   1.000  As
  B1       1.0000 0.82225  0.27179  0.82225  Biso   1.000  B 
  B2       1.0000 0.72821  0.17775  0.17775  Biso   1.000  B 
  B3       1.0000 0.17775  0.17775  0.72821  Biso   1.000  B 
  B4       1.0000 0.17775  0.72821  0.17775  Biso   1.000  B 
  B5       1.0000 0.27179  0.82225  0.82225  Biso   1.000  B 
  B6       1.0000 0.82225  0.82225  0.27179  Biso   1.000  B 
  B7       1.0000 0.98455  0.67525  0.98455  Biso   1.000  B 
  B8       1.0000 0.32475  0.01545  0.01545  Biso   1.000  B 
  B9       1.0000 0.01545  0.01545  0.32475  Biso   1.000  B 
  B10      1.0000 0.01545  0.32475  0.01545  Biso   1.000  B 
  B11      1.0000 0.67525  0.98455  0.98455  Biso   1.000  B 
  B12      1.0000 0.98455  0.98455  0.67525  Biso   1.000  B 
