data_image0
_cell_length_a       5.41685
_cell_length_b       6.93037
_cell_length_c       12.1888
_cell_angle_alpha    95.045
_cell_angle_beta     93.3014
_cell_angle_gamma    96.8783

_symmetry_space_group_name_H-M    "P 1"
_symmetry_int_tables_number       1

loop_
  _symmetry_equiv_pos_as_xyz
  'x, y, z'

loop_
  _atom_site_label
  _atom_site_occupancy
  _atom_site_fract_x
  _atom_site_fract_y
  _atom_site_fract_z
  _atom_site_thermal_displace_type
  _atom_site_B_iso_or_equiv
  _atom_site_type_symbol
  Bi1      1.0000 0.33798  0.98992  0.22794  Biso   1.000  Bi
  Bi2      1.0000 0.83798  0.48992  0.72794  Biso   1.000  Bi
  Bi3      1.0000 0.66202  0.01008  0.77206  Biso   1.000  Bi
  Bi4      1.0000 0.16202  0.51008  0.27206  Biso   1.000  Bi
  As1      1.0000 0.71309  0.24463  0.05515  Biso   1.000  As
  As2      1.0000 0.21309  0.74463  0.55515  Biso   1.000  As
  As3      1.0000 0.28691  0.75537  0.94485  Biso   1.000  As
  As4      1.0000 0.78692  0.25537  0.44485  Biso   1.000  As
  Co1      1.0000 0.21388  0.24964  0.88272  Biso   1.000  Co
  Co2      1.0000 0.78612  0.75036  0.11728  Biso   1.000  Co
  Co3      1.0000 0.71388  0.74964  0.38272  Biso   1.000  Co
  Co4      1.0000 0.28612  0.25036  0.61728  Biso   1.000  Co
  O1       1.0000 0.40669  0.27694  0.03285  Biso   1.000  O 
  O2       1.0000 0.90669  0.77694  0.53285  Biso   1.000  O 
  O3       1.0000 0.59331  0.72306  0.96715  Biso   1.000  O 
  O4       1.0000 0.09331  0.22306  0.46715  Biso   1.000  O 
  O5       1.0000 0.85458  0.16565  0.93824  Biso   1.000  O 
  O6       1.0000 0.35458  0.66565  0.43824  Biso   1.000  O 
  O7       1.0000 0.14542  0.83435  0.06176  Biso   1.000  O 
  O8       1.0000 0.64542  0.33435  0.56176  Biso   1.000  O 
  O9       1.0000 0.49754  0.27687  0.77131  Biso   1.000  O 
  O10      1.0000 0.99754  0.77687  0.27131  Biso   1.000  O 
  O11      1.0000 0.50246  0.72313  0.22869  Biso   1.000  O 
  O12      1.0000 0.00246  0.22313  0.72869  Biso   1.000  O 
  O13      1.0000 0.72243  0.06352  0.14602  Biso   1.000  O 
  O14      1.0000 0.22243  0.56352  0.64602  Biso   1.000  O 
  O15      1.0000 0.27757  0.93648  0.85398  Biso   1.000  O 
  O16      1.0000 0.77757  0.43648  0.35398  Biso   1.000  O 
  O17      1.0000 0.88404  0.46091  0.11264  Biso   1.000  O 
  O18      1.0000 0.38404  0.96091  0.61264  Biso   1.000  O 
  O19      1.0000 0.11596  0.53909  0.88736  Biso   1.000  O 
  O20      1.0000 0.61596  0.03909  0.38736  Biso   1.000  O 
