data_image0
_cell_length_a       5.57064
_cell_length_b       13.3658
_cell_length_c       7.15661
_cell_angle_alpha    67.9069
_cell_angle_beta     90
_cell_angle_gamma    90

_symmetry_space_group_name_H-M    "P 1"
_symmetry_int_tables_number       1

loop_
  _symmetry_equiv_pos_as_xyz
  'x, y, z'

loop_
  _atom_site_label
  _atom_site_occupancy
  _atom_site_fract_x
  _atom_site_fract_y
  _atom_site_fract_z
  _atom_site_thermal_displace_type
  _atom_site_B_iso_or_equiv
  _atom_site_type_symbol
  Pb1      1.0000 0.00000  0.66155  0.87914  Biso   1.000  Pb
  Pb2      1.0000 0.00000  0.33845  0.12086  Biso   1.000  Pb
  Pb3      1.0000 0.50000  0.83845  0.12086  Biso   1.000  Pb
  Pb4      1.0000 0.50000  0.16155  0.87914  Biso   1.000  Pb
  Bi1      1.0000 0.00000  0.98650  0.25345  Biso   1.000  Bi
  Bi2      1.0000 0.00000  0.01350  0.74655  Biso   1.000  Bi
  Bi3      1.0000 0.50000  0.51350  0.74655  Biso   1.000  Bi
  Bi4      1.0000 0.50000  0.48650  0.25345  Biso   1.000  Bi
  As1      1.0000 0.00000  0.66339  0.35036  Biso   1.000  As
  As2      1.0000 0.00000  0.33661  0.64964  Biso   1.000  As
  As3      1.0000 0.50000  0.83661  0.64964  Biso   1.000  As
  As4      1.0000 0.50000  0.16339  0.35036  Biso   1.000  As
  O1       1.0000 0.23712  0.00000  0.00000  Biso   1.000  O 
  O2       1.0000 0.76288  0.00000  0.00000  Biso   1.000  O 
  O3       1.0000 0.73712  0.50000  0.00000  Biso   1.000  O 
  O4       1.0000 0.26288  0.50000  0.00000  Biso   1.000  O 
  O5       1.0000 0.00000  0.58584  0.60287  Biso   1.000  O 
  O6       1.0000 0.00000  0.41416  0.39713  Biso   1.000  O 
  O7       1.0000 0.50000  0.91416  0.39713  Biso   1.000  O 
  O8       1.0000 0.50000  0.08584  0.60287  Biso   1.000  O 
  O9       1.0000 0.24895  0.64233  0.22457  Biso   1.000  O 
  O10      1.0000 0.24895  0.35767  0.77543  Biso   1.000  O 
  O11      1.0000 0.75105  0.35767  0.77543  Biso   1.000  O 
  O12      1.0000 0.75105  0.64233  0.22457  Biso   1.000  O 
  O13      1.0000 0.74895  0.85767  0.77543  Biso   1.000  O 
  O14      1.0000 0.25105  0.85767  0.77543  Biso   1.000  O 
  O15      1.0000 0.25105  0.14233  0.22457  Biso   1.000  O 
  O16      1.0000 0.74895  0.14233  0.22457  Biso   1.000  O 
  O17      1.0000 0.00000  0.79938  0.30684  Biso   1.000  O 
  O18      1.0000 0.00000  0.20062  0.69316  Biso   1.000  O 
  O19      1.0000 0.50000  0.70062  0.69316  Biso   1.000  O 
  O20      1.0000 0.50000  0.29938  0.30684  Biso   1.000  O 
