data_image0
_cell_length_a       3.94471
_cell_length_b       6.69601
_cell_length_c       7.36733
_cell_angle_alpha    90
_cell_angle_beta     90
_cell_angle_gamma    90

_symmetry_space_group_name_H-M    "P 1"
_symmetry_int_tables_number       1

loop_
  _symmetry_equiv_pos_as_xyz
  'x, y, z'

loop_
  _atom_site_label
  _atom_site_occupancy
  _atom_site_fract_x
  _atom_site_fract_y
  _atom_site_fract_z
  _atom_site_thermal_displace_type
  _atom_site_B_iso_or_equiv
  _atom_site_type_symbol
  Mn1      1.0000 0.00000  0.78607  0.82069  Biso   1.000  Mn
  Mn2      1.0000 0.50000  0.21393  0.32069  Biso   1.000  Mn
  Mn3      1.0000 0.00000  0.28607  0.67931  Biso   1.000  Mn
  Mn4      1.0000 0.50000  0.71393  0.17931  Biso   1.000  Mn
  Cu1      1.0000 0.00000  0.86877  0.44205  Biso   1.000  Cu
  Cu2      1.0000 0.00000  0.36877  0.05795  Biso   1.000  Cu
  Cu3      1.0000 0.50000  0.63123  0.55795  Biso   1.000  Cu
  Cu4      1.0000 0.50000  0.13123  0.94205  Biso   1.000  Cu
  As1      1.0000 0.00000  0.49720  0.37560  Biso   1.000  As
  As2      1.0000 0.00000  0.99720  0.12440  Biso   1.000  As
  As3      1.0000 0.50000  0.00280  0.62440  Biso   1.000  As
  As4      1.0000 0.50000  0.50280  0.87560  Biso   1.000  As
