data_image0
_cell_length_a       15.0894
_cell_length_b       6.96978
_cell_length_c       11.6085
_cell_angle_alpha    66.4932
_cell_angle_beta     90
_cell_angle_gamma    90

_symmetry_space_group_name_H-M    "P 1"
_symmetry_int_tables_number       1

loop_
  _symmetry_equiv_pos_as_xyz
  'x, y, z'

loop_
  _atom_site_label
  _atom_site_occupancy
  _atom_site_fract_x
  _atom_site_fract_y
  _atom_site_fract_z
  _atom_site_thermal_displace_type
  _atom_site_B_iso_or_equiv
  _atom_site_type_symbol
  Cs1      1.0000 0.20766  0.29738  0.04942  Biso   1.000  Cs
  Cs2      1.0000 0.29234  0.29738  0.54942  Biso   1.000  Cs
  Cs3      1.0000 0.79234  0.70262  0.95058  Biso   1.000  Cs
  Cs4      1.0000 0.70766  0.70262  0.45058  Biso   1.000  Cs
  Cs5      1.0000 0.90266  0.22059  0.55861  Biso   1.000  Cs
  Cs6      1.0000 0.59734  0.22059  0.05861  Biso   1.000  Cs
  Cs7      1.0000 0.09734  0.77941  0.44139  Biso   1.000  Cs
  Cs8      1.0000 0.40266  0.77941  0.94139  Biso   1.000  Cs
  Se1      1.0000 0.10844  0.28163  0.76398  Biso   1.000  Se
  Se2      1.0000 0.39156  0.28163  0.26398  Biso   1.000  Se
  Se3      1.0000 0.89156  0.71837  0.23602  Biso   1.000  Se
  Se4      1.0000 0.60844  0.71837  0.73602  Biso   1.000  Se
  Se5      1.0000 0.17288  0.80283  0.74328  Biso   1.000  Se
  Se6      1.0000 0.32712  0.80283  0.24328  Biso   1.000  Se
  Se7      1.0000 0.82712  0.19717  0.25672  Biso   1.000  Se
  Se8      1.0000 0.67288  0.19717  0.75672  Biso   1.000  Se
  Se9      1.0000 0.88477  0.20844  0.94108  Biso   1.000  Se
  Se10     1.0000 0.61523  0.20844  0.44108  Biso   1.000  Se
  Se11     1.0000 0.11523  0.79156  0.05892  Biso   1.000  Se
  Se12     1.0000 0.38477  0.79156  0.55892  Biso   1.000  Se
  Se13     1.0000 0.90612  0.66291  0.65347  Biso   1.000  Se
  Se14     1.0000 0.59388  0.66291  0.15347  Biso   1.000  Se
  Se15     1.0000 0.09388  0.33709  0.34653  Biso   1.000  Se
  Se16     1.0000 0.40612  0.33709  0.84653  Biso   1.000  Se
  As1      1.0000 0.99593  0.48532  0.82830  Biso   1.000  As
  As2      1.0000 0.50407  0.48532  0.32830  Biso   1.000  As
  As3      1.0000 0.00407  0.51468  0.17170  Biso   1.000  As
  As4      1.0000 0.49593  0.51468  0.67170  Biso   1.000  As
  As5      1.0000 0.05788  0.91125  0.84172  Biso   1.000  As
  As6      1.0000 0.44212  0.91125  0.34172  Biso   1.000  As
  As7      1.0000 0.94212  0.08875  0.15828  Biso   1.000  As
  As8      1.0000 0.55788  0.08875  0.65828  Biso   1.000  As
