data_image0
_cell_length_a       6.18754
_cell_length_b       6.47468
_cell_length_c       7.40031
_cell_angle_alpha    90
_cell_angle_beta     90
_cell_angle_gamma    90

_symmetry_space_group_name_H-M    "P 1"
_symmetry_int_tables_number       1

loop_
  _symmetry_equiv_pos_as_xyz
  'x, y, z'

loop_
  _atom_site_label
  _atom_site_occupancy
  _atom_site_fract_x
  _atom_site_fract_y
  _atom_site_fract_z
  _atom_site_thermal_displace_type
  _atom_site_B_iso_or_equiv
  _atom_site_type_symbol
  As1      1.0000 0.49599  0.16947  0.50000  Biso   1.000  As
  As2      1.0000 0.99599  0.83053  0.00000  Biso   1.000  As
  Cu1      1.0000 0.99999  0.84183  0.50000  Biso   1.000  Cu
  Cu2      1.0000 0.49999  0.15817  0.00000  Biso   1.000  Cu
  Cu3      1.0000 0.49065  0.67315  0.74734  Biso   1.000  Cu
  Cu4      1.0000 0.49065  0.67315  0.25266  Biso   1.000  Cu
  Cu5      1.0000 0.99065  0.32685  0.75266  Biso   1.000  Cu
  Cu6      1.0000 0.99065  0.32685  0.24734  Biso   1.000  Cu
  S1       1.0000 0.13121  0.17460  0.50000  Biso   1.000  S 
  S2       1.0000 0.63121  0.82540  0.00000  Biso   1.000  S 
  S3       1.0000 0.62513  0.84592  0.50000  Biso   1.000  S 
  S4       1.0000 0.12513  0.15408  0.00000  Biso   1.000  S 
  S5       1.0000 0.11874  0.66276  0.75400  Biso   1.000  S 
  S6       1.0000 0.11874  0.66276  0.24600  Biso   1.000  S 
  S7       1.0000 0.61874  0.33724  0.74600  Biso   1.000  S 
  S8       1.0000 0.61874  0.33724  0.25400  Biso   1.000  S 
