data_image0
_cell_length_a       7.67099
_cell_length_b       8.15958
_cell_length_c       8.97988
_cell_angle_alpha    90
_cell_angle_beta     90
_cell_angle_gamma    90

_symmetry_space_group_name_H-M    "P 1"
_symmetry_int_tables_number       1

loop_
  _symmetry_equiv_pos_as_xyz
  'x, y, z'

loop_
  _atom_site_label
  _atom_site_occupancy
  _atom_site_fract_x
  _atom_site_fract_y
  _atom_site_fract_z
  _atom_site_thermal_displace_type
  _atom_site_B_iso_or_equiv
  _atom_site_type_symbol
  Pb1      1.0000 0.50000  0.92327  0.50451  Biso   1.000  Pb
  Pb2      1.0000 0.00000  0.07673  0.00451  Biso   1.000  Pb
  Pb3      1.0000 0.00000  0.44999  0.69282  Biso   1.000  Pb
  Pb4      1.0000 0.50000  0.55001  0.19282  Biso   1.000  Pb
  As1      1.0000 0.00000  0.93759  0.58000  Biso   1.000  As
  As2      1.0000 0.50000  0.06241  0.08000  Biso   1.000  As
  As3      1.0000 0.50000  0.50443  0.65738  Biso   1.000  As
  As4      1.0000 0.00000  0.49557  0.15738  Biso   1.000  As
  Cu1      1.0000 0.73934  0.72286  0.92660  Biso   1.000  Cu
  Cu2      1.0000 0.26066  0.72286  0.92660  Biso   1.000  Cu
  Cu3      1.0000 0.76066  0.27714  0.42660  Biso   1.000  Cu
  Cu4      1.0000 0.23934  0.27714  0.42660  Biso   1.000  Cu
  S1       1.0000 0.50000  0.75032  0.77934  Biso   1.000  S 
  S2       1.0000 0.00000  0.24968  0.27934  Biso   1.000  S 
  S3       1.0000 0.00000  0.78234  0.79711  Biso   1.000  S 
  S4       1.0000 0.50000  0.21766  0.29711  Biso   1.000  S 
  S5       1.0000 0.72765  0.88981  0.13912  Biso   1.000  S 
  S6       1.0000 0.27235  0.88981  0.13912  Biso   1.000  S 
  S7       1.0000 0.77235  0.11019  0.63912  Biso   1.000  S 
  S8       1.0000 0.22765  0.11019  0.63912  Biso   1.000  S 
  S9       1.0000 0.77496  0.44395  0.99424  Biso   1.000  S 
  S10      1.0000 0.22504  0.44395  0.99424  Biso   1.000  S 
  S11      1.0000 0.72504  0.55605  0.49424  Biso   1.000  S 
  S12      1.0000 0.27496  0.55605  0.49424  Biso   1.000  S 
