data_image0
_cell_length_a       6.11498
_cell_length_b       8.39676
_cell_length_c       10.6381
_cell_angle_alpha    66.9583
_cell_angle_beta     90
_cell_angle_gamma    90

_symmetry_space_group_name_H-M    "P 1"
_symmetry_int_tables_number       1

loop_
  _symmetry_equiv_pos_as_xyz
  'x, y, z'

loop_
  _atom_site_label
  _atom_site_occupancy
  _atom_site_fract_x
  _atom_site_fract_y
  _atom_site_fract_z
  _atom_site_thermal_displace_type
  _atom_site_B_iso_or_equiv
  _atom_site_type_symbol
  As1      1.0000 0.44305  0.65815  0.00651  Biso   1.000  As
  As2      1.0000 0.94305  0.34185  0.49349  Biso   1.000  As
  As3      1.0000 0.55695  0.34185  0.99349  Biso   1.000  As
  As4      1.0000 0.05695  0.65815  0.50651  Biso   1.000  As
  Cl1      1.0000 0.55439  0.66452  0.19702  Biso   1.000  Cl
  Cl2      1.0000 0.05439  0.33548  0.30298  Biso   1.000  Cl
  Cl3      1.0000 0.44561  0.33548  0.80298  Biso   1.000  Cl
  Cl4      1.0000 0.94561  0.66452  0.69702  Biso   1.000  Cl
  Cl5      1.0000 0.56013  0.87042  0.82599  Biso   1.000  Cl
  Cl6      1.0000 0.06013  0.12958  0.67401  Biso   1.000  Cl
  Cl7      1.0000 0.43987  0.12958  0.17401  Biso   1.000  Cl
  Cl8      1.0000 0.93987  0.87042  0.32599  Biso   1.000  Cl
  Cl9      1.0000 0.12852  0.78715  0.00946  Biso   1.000  Cl
  Cl10     1.0000 0.62852  0.21285  0.49054  Biso   1.000  Cl
  Cl11     1.0000 0.87148  0.21285  0.99054  Biso   1.000  Cl
  Cl12     1.0000 0.37148  0.78715  0.50946  Biso   1.000  Cl
  O1       1.0000 0.30637  0.47675  0.99838  Biso   1.000  O 
  O2       1.0000 0.80637  0.52325  0.50162  Biso   1.000  O 
  O3       1.0000 0.69363  0.52325  0.00162  Biso   1.000  O 
  O4       1.0000 0.19363  0.47675  0.49838  Biso   1.000  O 
