data_image0
_cell_length_a       10.1172
_cell_length_b       10.3879
_cell_length_c       12.0396
_cell_angle_alpha    90
_cell_angle_beta     90
_cell_angle_gamma    90

_symmetry_space_group_name_H-M    "P 1"
_symmetry_int_tables_number       1

loop_
  _symmetry_equiv_pos_as_xyz
  'x, y, z'

loop_
  _atom_site_label
  _atom_site_occupancy
  _atom_site_fract_x
  _atom_site_fract_y
  _atom_site_fract_z
  _atom_site_thermal_displace_type
  _atom_site_B_iso_or_equiv
  _atom_site_type_symbol
  Cs1      1.0000 0.54415  0.69729  0.54180  Biso   1.000  Cs
  Cs2      1.0000 0.04415  0.80271  0.95820  Biso   1.000  Cs
  Cs3      1.0000 0.45585  0.30271  0.04180  Biso   1.000  Cs
  Cs4      1.0000 0.95585  0.19729  0.45820  Biso   1.000  Cs
  Cs5      1.0000 0.45585  0.30271  0.45820  Biso   1.000  Cs
  Cs6      1.0000 0.95585  0.19729  0.04180  Biso   1.000  Cs
  Cs7      1.0000 0.54415  0.69729  0.95820  Biso   1.000  Cs
  Cs8      1.0000 0.04415  0.80271  0.54180  Biso   1.000  Cs
  Cs9      1.0000 0.34979  0.08802  0.75000  Biso   1.000  Cs
  Cs10     1.0000 0.84979  0.41198  0.75000  Biso   1.000  Cs
  Cs11     1.0000 0.65021  0.91198  0.25000  Biso   1.000  Cs
  Cs12     1.0000 0.15021  0.58802  0.25000  Biso   1.000  Cs
  As1      1.0000 0.26986  0.52370  0.75000  Biso   1.000  As
  As2      1.0000 0.76986  0.97630  0.75000  Biso   1.000  As
  As3      1.0000 0.73014  0.47630  0.25000  Biso   1.000  As
  As4      1.0000 0.23014  0.02370  0.25000  Biso   1.000  As
  Se1      1.0000 0.29511  0.74879  0.75000  Biso   1.000  Se
  Se2      1.0000 0.79511  0.75121  0.75000  Biso   1.000  Se
  Se3      1.0000 0.70489  0.25121  0.25000  Biso   1.000  Se
  Se4      1.0000 0.20489  0.24879  0.25000  Biso   1.000  Se
  Se5      1.0000 0.48051  0.42431  0.75000  Biso   1.000  Se
  Se6      1.0000 0.98051  0.07569  0.75000  Biso   1.000  Se
  Se7      1.0000 0.51949  0.57569  0.25000  Biso   1.000  Se
  Se8      1.0000 0.01949  0.92431  0.25000  Biso   1.000  Se
  Se9      1.0000 0.15645  0.46401  0.58709  Biso   1.000  Se
  Se10     1.0000 0.65645  0.03599  0.91291  Biso   1.000  Se
  Se11     1.0000 0.84355  0.53599  0.08709  Biso   1.000  Se
  Se12     1.0000 0.34355  0.96401  0.41291  Biso   1.000  Se
  Se13     1.0000 0.84355  0.53599  0.41291  Biso   1.000  Se
  Se14     1.0000 0.34355  0.96401  0.08709  Biso   1.000  Se
  Se15     1.0000 0.15645  0.46401  0.91291  Biso   1.000  Se
  Se16     1.0000 0.65645  0.03599  0.58709  Biso   1.000  Se
