data_image0
_cell_length_a       6.80998
_cell_length_b       6.80998
_cell_length_c       6.80998
_cell_angle_alpha    130.977
_cell_angle_beta     130.977
_cell_angle_gamma    71.8496

_symmetry_space_group_name_H-M    "P 1"
_symmetry_int_tables_number       1

loop_
  _symmetry_equiv_pos_as_xyz
  'x, y, z'

loop_
  _atom_site_label
  _atom_site_occupancy
  _atom_site_fract_x
  _atom_site_fract_y
  _atom_site_fract_z
  _atom_site_thermal_displace_type
  _atom_site_B_iso_or_equiv
  _atom_site_type_symbol
  As1      1.0000 0.00000  0.00000  0.00000  Biso   1.000  As
  Cu1      1.0000 0.50000  0.50000  0.00000  Biso   1.000  Cu
  Cu2      1.0000 0.75000  0.25000  0.50000  Biso   1.000  Cu
  Cu3      1.0000 0.25000  0.75000  0.50000  Biso   1.000  Cu
  Se1      1.0000 0.37969  0.87809  0.00000  Biso   1.000  Se
  Se2      1.0000 0.87809  0.37969  0.00000  Biso   1.000  Se
  Se3      1.0000 0.62031  0.62031  0.49840  Biso   1.000  Se
  Se4      1.0000 0.12191  0.12191  0.50160  Biso   1.000  Se
