data_image0
_cell_length_a       6.09814
_cell_length_b       7.46353
_cell_length_c       8.95175
_cell_angle_alpha    90
_cell_angle_beta     90
_cell_angle_gamma    90

_symmetry_space_group_name_H-M    "P 1"
_symmetry_int_tables_number       1

loop_
  _symmetry_equiv_pos_as_xyz
  'x, y, z'

loop_
  _atom_site_label
  _atom_site_occupancy
  _atom_site_fract_x
  _atom_site_fract_y
  _atom_site_fract_z
  _atom_site_thermal_displace_type
  _atom_site_B_iso_or_equiv
  _atom_site_type_symbol
  Ca1      1.0000 0.98756  0.38332  0.33135  Biso   1.000  Ca
  Ca2      1.0000 0.48756  0.61668  0.66865  Biso   1.000  Ca
  Ca3      1.0000 0.01244  0.88332  0.16865  Biso   1.000  Ca
  Ca4      1.0000 0.51244  0.11668  0.83135  Biso   1.000  Ca
  Ni1      1.0000 0.75469  0.51384  0.99396  Biso   1.000  Ni
  Ni2      1.0000 0.25469  0.48616  0.00604  Biso   1.000  Ni
  Ni3      1.0000 0.24531  0.01384  0.50604  Biso   1.000  Ni
  Ni4      1.0000 0.74531  0.98616  0.49396  Biso   1.000  Ni
  As1      1.0000 0.51988  0.62924  0.31648  Biso   1.000  As
  As2      1.0000 0.01988  0.37076  0.68352  Biso   1.000  As
  As3      1.0000 0.48012  0.12924  0.18352  Biso   1.000  As
  As4      1.0000 0.98012  0.87076  0.81648  Biso   1.000  As
  O1       1.0000 0.48755  0.80719  0.44092  Biso   1.000  O 
  O2       1.0000 0.98755  0.19281  0.55908  Biso   1.000  O 
  O3       1.0000 0.51245  0.30719  0.05908  Biso   1.000  O 
  O4       1.0000 0.01245  0.69281  0.94092  Biso   1.000  O 
  O5       1.0000 0.61309  0.46017  0.43121  Biso   1.000  O 
  O6       1.0000 0.11309  0.53983  0.56879  Biso   1.000  O 
  O7       1.0000 0.38691  0.96017  0.06879  Biso   1.000  O 
  O8       1.0000 0.88691  0.03983  0.93121  Biso   1.000  O 
  O9       1.0000 0.27291  0.58817  0.22915  Biso   1.000  O 
  O10      1.0000 0.77291  0.41183  0.77085  Biso   1.000  O 
  O11      1.0000 0.72709  0.08817  0.27085  Biso   1.000  O 
  O12      1.0000 0.22709  0.91183  0.72915  Biso   1.000  O 
  O13      1.0000 0.73324  0.66219  0.19291  Biso   1.000  O 
  O14      1.0000 0.23324  0.33781  0.80709  Biso   1.000  O 
  O15      1.0000 0.26676  0.16219  0.30709  Biso   1.000  O 
  O16      1.0000 0.76676  0.83781  0.69291  Biso   1.000  O 
  O17      1.0000 0.99078  0.36167  0.07602  Biso   1.000  O 
  O18      1.0000 0.49078  0.63833  0.92398  Biso   1.000  O 
  O19      1.0000 0.00922  0.86167  0.42398  Biso   1.000  O 
  O20      1.0000 0.50922  0.13833  0.57602  Biso   1.000  O 
  H1       1.0000 0.52395  0.25206  0.52065  Biso   1.000  H 
  H2       1.0000 0.02395  0.74794  0.47935  Biso   1.000  H 
  H3       1.0000 0.47605  0.75206  0.97935  Biso   1.000  H 
  H4       1.0000 0.97605  0.24794  0.02065  Biso   1.000  H 
