data_image0
_cell_length_a       6.2773
_cell_length_b       6.3762
_cell_length_c       8.29722
_cell_angle_alpha    78.1211
_cell_angle_beta     70.0229
_cell_angle_gamma    60.7236

_symmetry_space_group_name_H-M    "P 1"
_symmetry_int_tables_number       1

loop_
  _symmetry_equiv_pos_as_xyz
  'x, y, z'

loop_
  _atom_site_label
  _atom_site_occupancy
  _atom_site_fract_x
  _atom_site_fract_y
  _atom_site_fract_z
  _atom_site_thermal_displace_type
  _atom_site_B_iso_or_equiv
  _atom_site_type_symbol
  As1      1.0000 0.13108  0.20652  0.35256  Biso   1.000  As
  As2      1.0000 0.86892  0.79348  0.64744  Biso   1.000  As
  C1       1.0000 0.03620  0.14349  0.16886  Biso   1.000  C 
  C2       1.0000 0.96380  0.85651  0.83114  Biso   1.000  C 
  C3       1.0000 0.44863  0.90644  0.32837  Biso   1.000  C 
  C4       1.0000 0.55137  0.09356  0.67163  Biso   1.000  C 
  C5       1.0000 0.29898  0.40499  0.21088  Biso   1.000  C 
  C6       1.0000 0.70102  0.59501  0.78912  Biso   1.000  C 
  H1       1.0000 0.97334  0.00375  0.21625  Biso   1.000  H 
  H2       1.0000 0.02666  0.99625  0.78375  Biso   1.000  H 
  H3       1.0000 0.87586  0.31334  0.14603  Biso   1.000  H 
  H4       1.0000 0.12414  0.68666  0.85397  Biso   1.000  H 
  H5       1.0000 0.19341  0.09177  0.05060  Biso   1.000  H 
  H6       1.0000 0.80659  0.90823  0.94940  Biso   1.000  H 
  H7       1.0000 0.39435  0.43467  0.28618  Biso   1.000  H 
  H8       1.0000 0.60565  0.56533  0.71382  Biso   1.000  H 
  H9       1.0000 0.43322  0.32047  0.09068  Biso   1.000  H 
  H10      1.0000 0.56678  0.67953  0.90932  Biso   1.000  H 
  H11      1.0000 0.14406  0.57683  0.18446  Biso   1.000  H 
  H12      1.0000 0.85594  0.42317  0.81554  Biso   1.000  H 
  N1       1.0000 0.63437  0.72535  0.32675  Biso   1.000  N 
  N2       1.0000 0.36563  0.27465  0.67325  Biso   1.000  N 
