data_image0
_cell_length_a       9.77901
_cell_length_b       7.73882
_cell_length_c       20.0564
_cell_angle_alpha    77.2778
_cell_angle_beta     90
_cell_angle_gamma    90

_symmetry_space_group_name_H-M    "P 1"
_symmetry_int_tables_number       1

loop_
  _symmetry_equiv_pos_as_xyz
  'x, y, z'

loop_
  _atom_site_label
  _atom_site_occupancy
  _atom_site_fract_x
  _atom_site_fract_y
  _atom_site_fract_z
  _atom_site_thermal_displace_type
  _atom_site_B_iso_or_equiv
  _atom_site_type_symbol
  Cs1      1.0000 0.06190  0.15843  0.26188  Biso   1.000  Cs
  Cs2      1.0000 0.43810  0.15843  0.76188  Biso   1.000  Cs
  Cs3      1.0000 0.93810  0.84157  0.73812  Biso   1.000  Cs
  Cs4      1.0000 0.56190  0.84157  0.23812  Biso   1.000  Cs
  Cs5      1.0000 0.69822  0.91422  0.45711  Biso   1.000  Cs
  Cs6      1.0000 0.80178  0.91422  0.95711  Biso   1.000  Cs
  Cs7      1.0000 0.30178  0.08578  0.54289  Biso   1.000  Cs
  Cs8      1.0000 0.19822  0.08578  0.04289  Biso   1.000  Cs
  Cs9      1.0000 0.20905  0.61687  0.41536  Biso   1.000  Cs
  Cs10     1.0000 0.29095  0.61687  0.91536  Biso   1.000  Cs
  Cs11     1.0000 0.79095  0.38313  0.58464  Biso   1.000  Cs
  Cs12     1.0000 0.70905  0.38313  0.08464  Biso   1.000  Cs
  Se1      1.0000 0.88769  0.71665  0.31624  Biso   1.000  Se
  Se2      1.0000 0.61231  0.71665  0.81624  Biso   1.000  Se
  Se3      1.0000 0.11231  0.28335  0.68376  Biso   1.000  Se
  Se4      1.0000 0.38769  0.28335  0.18376  Biso   1.000  Se
  Se5      1.0000 0.70714  0.29592  0.27624  Biso   1.000  Se
  Se6      1.0000 0.79286  0.29592  0.77624  Biso   1.000  Se
  Se7      1.0000 0.29286  0.70408  0.72376  Biso   1.000  Se
  Se8      1.0000 0.20714  0.70408  0.22376  Biso   1.000  Se
  Se9      1.0000 0.96188  0.24623  0.43299  Biso   1.000  Se
  Se10     1.0000 0.53812  0.24623  0.93299  Biso   1.000  Se
  Se11     1.0000 0.03812  0.75377  0.56701  Biso   1.000  Se
  Se12     1.0000 0.46188  0.75377  0.06701  Biso   1.000  Se
  Se13     1.0000 0.88271  0.94235  0.13508  Biso   1.000  Se
  Se14     1.0000 0.61729  0.94235  0.63508  Biso   1.000  Se
  Se15     1.0000 0.11729  0.05765  0.86492  Biso   1.000  Se
  Se16     1.0000 0.38271  0.05765  0.36492  Biso   1.000  Se
  Se17     1.0000 0.59179  0.47649  0.42776  Biso   1.000  Se
  Se18     1.0000 0.90821  0.47649  0.92776  Biso   1.000  Se
  Se19     1.0000 0.40821  0.52351  0.57224  Biso   1.000  Se
  Se20     1.0000 0.09179  0.52351  0.07224  Biso   1.000  Se
  Ge1      1.0000 0.79236  0.42504  0.37106  Biso   1.000  Ge
  Ge2      1.0000 0.70764  0.42504  0.87106  Biso   1.000  Ge
  Ge3      1.0000 0.20764  0.57496  0.62894  Biso   1.000  Ge
  Ge4      1.0000 0.29236  0.57496  0.12894  Biso   1.000  Ge
  As1      1.0000 0.95879  0.66925  0.19949  Biso   1.000  As
  As2      1.0000 0.54121  0.66925  0.69949  Biso   1.000  As
  As3      1.0000 0.04121  0.33075  0.80051  Biso   1.000  As
  As4      1.0000 0.45879  0.33075  0.30051  Biso   1.000  As
