data_image0
_cell_length_a       9.51959
_cell_length_b       9.51959
_cell_length_c       11.9712
_cell_angle_alpha    90
_cell_angle_beta     90
_cell_angle_gamma    113.195

_symmetry_space_group_name_H-M    "P 1"
_symmetry_int_tables_number       1

loop_
  _symmetry_equiv_pos_as_xyz
  'x, y, z'

loop_
  _atom_site_label
  _atom_site_occupancy
  _atom_site_fract_x
  _atom_site_fract_y
  _atom_site_fract_z
  _atom_site_thermal_displace_type
  _atom_site_B_iso_or_equiv
  _atom_site_type_symbol
  Nb1      1.0000 0.20940  0.79060  0.50111  Biso   1.000  Nb
  Nb2      1.0000 0.79060  0.20940  0.00111  Biso   1.000  Nb
  Cl1      1.0000 0.33566  0.66434  0.39492  Biso   1.000  Cl
  Cl2      1.0000 0.66434  0.33566  0.89492  Biso   1.000  Cl
  Cl3      1.0000 0.08842  0.91158  0.61707  Biso   1.000  Cl
  Cl4      1.0000 0.91158  0.08842  0.11707  Biso   1.000  Cl
  Cl5      1.0000 0.31181  0.00903  0.38594  Biso   1.000  Cl
  Cl6      1.0000 0.99097  0.68819  0.38594  Biso   1.000  Cl
  Cl7      1.0000 0.68819  0.99097  0.88594  Biso   1.000  Cl
  Cl8      1.0000 0.00903  0.31181  0.88594  Biso   1.000  Cl
  Cl9      1.0000 0.43192  0.89114  0.62049  Biso   1.000  Cl
  Cl10     1.0000 0.10886  0.56808  0.62049  Biso   1.000  Cl
  Cl11     1.0000 0.56808  0.10886  0.12049  Biso   1.000  Cl
  Cl12     1.0000 0.89114  0.43192  0.12049  Biso   1.000  Cl
  Cl13     1.0000 0.76375  0.93209  0.40684  Biso   1.000  Cl
  Cl14     1.0000 0.06791  0.23625  0.40684  Biso   1.000  Cl
  Cl15     1.0000 0.23625  0.06791  0.90684  Biso   1.000  Cl
  Cl16     1.0000 0.93209  0.76375  0.90684  Biso   1.000  Cl
  Cl17     1.0000 0.74190  0.25810  0.41632  Biso   1.000  Cl
  Cl18     1.0000 0.25810  0.74190  0.91632  Biso   1.000  Cl
  Cl19     1.0000 0.86287  0.13713  0.62811  Biso   1.000  Cl
  Cl20     1.0000 0.13713  0.86287  0.12811  Biso   1.000  Cl
  Cl21     1.0000 0.55715  0.44285  0.33067  Biso   1.000  Cl
  Cl22     1.0000 0.44285  0.55715  0.83067  Biso   1.000  Cl
  Cl23     1.0000 0.37749  0.30215  0.62420  Biso   1.000  Cl
  Cl24     1.0000 0.69785  0.62251  0.62420  Biso   1.000  Cl
  Cl25     1.0000 0.62251  0.69785  0.12420  Biso   1.000  Cl
  Cl26     1.0000 0.30215  0.37749  0.12420  Biso   1.000  Cl
  As1      1.0000 0.44713  0.55287  0.64412  Biso   1.000  As
  As2      1.0000 0.55287  0.44713  0.14412  Biso   1.000  As
  P1       1.0000 0.85932  0.14068  0.46474  Biso   1.000  P 
  P2       1.0000 0.14068  0.85932  0.96475  Biso   1.000  P 
