data_image0
_cell_length_a       16.7092
_cell_length_b       5.72738
_cell_length_c       8.26924
_cell_angle_alpha    44.9163
_cell_angle_beta     90
_cell_angle_gamma    90

_symmetry_space_group_name_H-M    "P 1"
_symmetry_int_tables_number       1

loop_
  _symmetry_equiv_pos_as_xyz
  'x, y, z'

loop_
  _atom_site_label
  _atom_site_occupancy
  _atom_site_fract_x
  _atom_site_fract_y
  _atom_site_fract_z
  _atom_site_thermal_displace_type
  _atom_site_B_iso_or_equiv
  _atom_site_type_symbol
  Cd1      1.0000 0.24862  0.75187  0.73319  Biso   1.000  Cd
  Cd2      1.0000 0.25138  0.75187  0.23319  Biso   1.000  Cd
  Cd3      1.0000 0.75138  0.24813  0.26681  Biso   1.000  Cd
  Cd4      1.0000 0.74862  0.24813  0.76681  Biso   1.000  Cd
  As1      1.0000 0.10101  0.25578  0.72251  Biso   1.000  As
  As2      1.0000 0.39899  0.25578  0.22251  Biso   1.000  As
  As3      1.0000 0.89899  0.74422  0.27749  Biso   1.000  As
  As4      1.0000 0.60101  0.74422  0.77749  Biso   1.000  As
  S1       1.0000 0.39913  0.68713  0.83379  Biso   1.000  S 
  S2       1.0000 0.10087  0.68713  0.33379  Biso   1.000  S 
  S3       1.0000 0.60087  0.31287  0.16621  Biso   1.000  S 
  S4       1.0000 0.89913  0.31287  0.66621  Biso   1.000  S 
  S5       1.0000 0.09631  0.81070  0.76835  Biso   1.000  S 
  S6       1.0000 0.40369  0.81070  0.26835  Biso   1.000  S 
  S7       1.0000 0.90369  0.18930  0.23165  Biso   1.000  S 
  S8       1.0000 0.59631  0.18930  0.73165  Biso   1.000  S 
  S9       1.0000 0.26280  0.24175  0.27903  Biso   1.000  S 
  S10      1.0000 0.23720  0.24175  0.77903  Biso   1.000  S 
  S11      1.0000 0.73720  0.75825  0.72097  Biso   1.000  S 
  S12      1.0000 0.76280  0.75825  0.22097  Biso   1.000  S 
  Na1      1.0000 0.42381  0.25918  0.76298  Biso   1.000  Na
  Na2      1.0000 0.07619  0.25918  0.26298  Biso   1.000  Na
  Na3      1.0000 0.57619  0.74082  0.23702  Biso   1.000  Na
  Na4      1.0000 0.92381  0.74082  0.73702  Biso   1.000  Na
