data_image0
_cell_length_a       8.55584
_cell_length_b       8.55584
_cell_length_c       8.55584
_cell_angle_alpha    149.186
_cell_angle_beta     149.186
_cell_angle_gamma    44.1369

_symmetry_space_group_name_H-M    "P 1"
_symmetry_int_tables_number       1

loop_
  _symmetry_equiv_pos_as_xyz
  'x, y, z'

loop_
  _atom_site_label
  _atom_site_occupancy
  _atom_site_fract_x
  _atom_site_fract_y
  _atom_site_fract_z
  _atom_site_thermal_displace_type
  _atom_site_B_iso_or_equiv
  _atom_site_type_symbol
  As1      1.0000 0.13463  0.13463  0.00000  Biso   1.000  As
  As2      1.0000 0.86537  0.86537  0.00000  Biso   1.000  As
  Ca1      1.0000 0.32073  0.32073  0.00000  Biso   1.000  Ca
  Ca2      1.0000 0.67927  0.67927  0.00000  Biso   1.000  Ca
  Ca3      1.0000 0.50000  0.00000  0.50000  Biso   1.000  Ca
  Ca4      1.0000 0.00000  0.50000  0.50000  Biso   1.000  Ca
