data_image0
_cell_length_a       8.60714
_cell_length_b       8.60714
_cell_length_c       8.60714
_cell_angle_alpha    90
_cell_angle_beta     90
_cell_angle_gamma    90

_symmetry_space_group_name_H-M    "P 1"
_symmetry_int_tables_number       1

loop_
  _symmetry_equiv_pos_as_xyz
  'x, y, z'

loop_
  _atom_site_label
  _atom_site_occupancy
  _atom_site_fract_x
  _atom_site_fract_y
  _atom_site_fract_z
  _atom_site_thermal_displace_type
  _atom_site_B_iso_or_equiv
  _atom_site_type_symbol
  Hg1      1.0000 0.05017  0.60250  0.14669  Biso   1.000  Hg
  Hg2      1.0000 0.85331  0.55017  0.89750  Biso   1.000  Hg
  Hg3      1.0000 0.10250  0.35331  0.94983  Biso   1.000  Hg
  Hg4      1.0000 0.55017  0.89750  0.85331  Biso   1.000  Hg
  Hg5      1.0000 0.35331  0.94983  0.10250  Biso   1.000  Hg
  Hg6      1.0000 0.60250  0.14669  0.05017  Biso   1.000  Hg
  Hg7      1.0000 0.94983  0.10250  0.35331  Biso   1.000  Hg
  Hg8      1.0000 0.14669  0.05017  0.60250  Biso   1.000  Hg
  Hg9      1.0000 0.89750  0.85331  0.55017  Biso   1.000  Hg
  Hg10     1.0000 0.44983  0.39750  0.64669  Biso   1.000  Hg
  Hg11     1.0000 0.64669  0.44983  0.39750  Biso   1.000  Hg
  Hg12     1.0000 0.39750  0.64669  0.44983  Biso   1.000  Hg
  Cl1      1.0000 0.27054  0.77054  0.72946  Biso   1.000  Cl
  Cl2      1.0000 0.77054  0.72946  0.27054  Biso   1.000  Cl
  Cl3      1.0000 0.72946  0.27054  0.77054  Biso   1.000  Cl
  Cl4      1.0000 0.22946  0.22946  0.22946  Biso   1.000  Cl
  As1      1.0000 0.52009  0.02009  0.47991  Biso   1.000  As
  As2      1.0000 0.02009  0.47991  0.52009  Biso   1.000  As
  As3      1.0000 0.47991  0.52009  0.02009  Biso   1.000  As
  As4      1.0000 0.97991  0.97991  0.97991  Biso   1.000  As
  O1       1.0000 0.63432  0.13432  0.36568  Biso   1.000  O 
  O2       1.0000 0.13432  0.36568  0.63432  Biso   1.000  O 
  O3       1.0000 0.36568  0.63432  0.13432  Biso   1.000  O 
  O4       1.0000 0.86568  0.86568  0.86568  Biso   1.000  O 
  O5       1.0000 0.62729  0.89750  0.60095  Biso   1.000  O 
  O6       1.0000 0.39905  0.12729  0.60250  Biso   1.000  O 
  O7       1.0000 0.39750  0.89905  0.37271  Biso   1.000  O 
  O8       1.0000 0.12729  0.60250  0.39905  Biso   1.000  O 
  O9       1.0000 0.89905  0.37271  0.39750  Biso   1.000  O 
  O10      1.0000 0.89750  0.60095  0.62729  Biso   1.000  O 
  O11      1.0000 0.37271  0.39750  0.89905  Biso   1.000  O 
  O12      1.0000 0.60095  0.62729  0.89750  Biso   1.000  O 
  O13      1.0000 0.60250  0.39905  0.12729  Biso   1.000  O 
  O14      1.0000 0.87271  0.10250  0.10095  Biso   1.000  O 
  O15      1.0000 0.10095  0.87271  0.10250  Biso   1.000  O 
  O16      1.0000 0.10250  0.10095  0.87271  Biso   1.000  O 
