data_image0
_cell_length_a       9.24832
_cell_length_b       9.24832
_cell_length_c       9.24832
_cell_angle_alpha    138.371
_cell_angle_beta     109.133
_cell_angle_gamma    85.6856

_symmetry_space_group_name_H-M    "P 1"
_symmetry_int_tables_number       1

loop_
  _symmetry_equiv_pos_as_xyz
  'x, y, z'

loop_
  _atom_site_label
  _atom_site_occupancy
  _atom_site_fract_x
  _atom_site_fract_y
  _atom_site_fract_z
  _atom_site_thermal_displace_type
  _atom_site_B_iso_or_equiv
  _atom_site_type_symbol
  Cr1      1.0000 0.00000  0.50000  0.50000  Biso   1.000  Cr
  Cr2      1.0000 0.50000  0.00000  0.50000  Biso   1.000  Cr
  Cr3      1.0000 0.61496  0.61496  0.50000  Biso   1.000  Cr
  Cr4      1.0000 0.88504  0.38504  0.00000  Biso   1.000  Cr
  Cr5      1.0000 0.11496  0.61496  1.00000  Biso   1.000  Cr
  Cr6      1.0000 0.38504  0.38504  0.50000  Biso   1.000  Cr
  As1      1.0000 0.75000  0.30984  0.55984  Biso   1.000  As
  As2      1.0000 0.25000  0.69016  0.44016  Biso   1.000  As
  As3      1.0000 0.82491  0.82491  0.50000  Biso   1.000  As
  As4      1.0000 0.67509  0.17509  0.00000  Biso   1.000  As
  As5      1.0000 0.32491  0.82491  1.00000  Biso   1.000  As
  As6      1.0000 0.17509  0.17509  0.50000  Biso   1.000  As
  O1       1.0000 0.62104  0.47173  0.59277  Biso   1.000  O 
  O2       1.0000 0.37896  0.52827  0.40723  Biso   1.000  O 
  O3       1.0000 0.87896  0.47173  0.85069  Biso   1.000  O 
  O4       1.0000 0.12104  0.52827  0.14931  Biso   1.000  O 
  O5       1.0000 0.84658  0.69059  0.57387  Biso   1.000  O 
  O6       1.0000 0.61673  0.77271  0.42613  Biso   1.000  O 
  O7       1.0000 0.65342  0.22729  0.84402  Biso   1.000  O 
  O8       1.0000 0.11673  0.69059  0.84402  Biso   1.000  O 
  O9       1.0000 0.15342  0.30941  0.42613  Biso   1.000  O 
  O10      1.0000 0.38327  0.22729  0.57387  Biso   1.000  O 
  O11      1.0000 0.34658  0.77271  0.15598  Biso   1.000  O 
  O12      1.0000 0.88327  0.30940  0.15598  Biso   1.000  O 
  O13      1.0000 0.85447  0.68820  0.25726  Biso   1.000  O 
  O14      1.0000 0.93094  0.09721  0.74274  Biso   1.000  O 
  O15      1.0000 0.64553  0.90279  0.83373  Biso   1.000  O 
  O16      1.0000 0.43094  0.68820  0.83373  Biso   1.000  O 
  O17      1.0000 0.14553  0.31180  0.74274  Biso   1.000  O 
  O18      1.0000 0.06906  0.90279  0.25726  Biso   1.000  O 
  O19      1.0000 0.35447  0.09721  0.16627  Biso   1.000  O 
  O20      1.0000 0.56906  0.31180  0.16627  Biso   1.000  O 
  O21      1.0000 0.85595  0.27741  0.42146  Biso   1.000  O 
  O22      1.0000 0.35595  0.93449  0.57854  Biso   1.000  O 
  O23      1.0000 0.64405  0.06551  0.42146  Biso   1.000  O 
  O24      1.0000 0.14405  0.72259  0.57854  Biso   1.000  O 
