data_image0
_cell_length_a       7.8732
_cell_length_b       7.87176
_cell_length_c       5.948
_cell_angle_alpha    90.0078
_cell_angle_beta     90.0115
_cell_angle_gamma    120.003

_symmetry_space_group_name_H-M    "P 1"
_symmetry_int_tables_number       1

loop_
  _symmetry_equiv_pos_as_xyz
  'x, y, z'

loop_
  _atom_site_label
  _atom_site_occupancy
  _atom_site_fract_x
  _atom_site_fract_y
  _atom_site_fract_z
  _atom_site_thermal_displace_type
  _atom_site_B_iso_or_equiv
  _atom_site_type_symbol
  Ca1      1.0000 0.31480  0.99958  0.00037  Biso   1.000  Ca
  Ca2      1.0000 0.68524  0.68504  0.99963  Biso   1.000  Ca
  Ca3      1.0000 0.99994  0.31529  0.99984  Biso   1.000  Ca
  Ca4      1.0000 0.64900  0.99992  0.49978  Biso   1.000  Ca
  Ca5      1.0000 0.35084  0.35099  0.50001  Biso   1.000  Ca
  Ca6      1.0000 0.00025  0.64923  0.49995  Biso   1.000  Ca
  As1      1.0000 0.00006  0.00000  0.28769  Biso   1.000  As
  As2      1.0000 0.00023  0.00017  0.71254  Biso   1.000  As
  As3      1.0000 0.33330  0.66649  0.21820  Biso   1.000  As
  As4      1.0000 0.66656  0.33350  0.78210  Biso   1.000  As
  As5      1.0000 0.66656  0.33343  0.21790  Biso   1.000  As
  As6      1.0000 0.33334  0.66657  0.78198  Biso   1.000  As
