data_image0
_cell_length_a       8.55689
_cell_length_b       8.60717
_cell_length_c       11.9372
_cell_angle_alpha    90
_cell_angle_beta     90
_cell_angle_gamma    90

_symmetry_space_group_name_H-M    "P 1"
_symmetry_int_tables_number       1

loop_
  _symmetry_equiv_pos_as_xyz
  'x, y, z'

loop_
  _atom_site_label
  _atom_site_occupancy
  _atom_site_fract_x
  _atom_site_fract_y
  _atom_site_fract_z
  _atom_site_thermal_displace_type
  _atom_site_B_iso_or_equiv
  _atom_site_type_symbol
  As1      1.0000 0.26217  0.74467  0.62500  Biso   1.000  As
  As2      1.0000 0.26217  0.74467  0.12500  Biso   1.000  As
  As3      1.0000 0.73783  0.25533  0.62500  Biso   1.000  As
  As4      1.0000 0.73783  0.25533  0.12500  Biso   1.000  As
  As5      1.0000 0.23783  0.24467  0.87500  Biso   1.000  As
  As6      1.0000 0.23783  0.24467  0.37500  Biso   1.000  As
  As7      1.0000 0.76217  0.75533  0.87500  Biso   1.000  As
  As8      1.0000 0.76217  0.75533  0.37500  Biso   1.000  As
  Cu1      1.0000 0.50000  0.50000  0.75117  Biso   1.000  Cu
  Cu2      1.0000 0.00000  0.00000  0.24883  Biso   1.000  Cu
  Cu3      1.0000 0.50000  0.50000  0.99883  Biso   1.000  Cu
  Cu4      1.0000 0.00000  0.00000  0.00117  Biso   1.000  Cu
  Cu5      1.0000 0.50000  0.50000  0.25117  Biso   1.000  Cu
  Cu6      1.0000 0.00000  0.00000  0.74883  Biso   1.000  Cu
  Cu7      1.0000 0.50000  0.50000  0.49883  Biso   1.000  Cu
  Cu8      1.0000 0.00000  0.00000  0.50117  Biso   1.000  Cu
  Zn1      1.0000 0.13684  0.62339  0.87500  Biso   1.000  Zn
  Zn2      1.0000 0.13684  0.62339  0.37500  Biso   1.000  Zn
  Zn3      1.0000 0.86316  0.37661  0.87500  Biso   1.000  Zn
  Zn4      1.0000 0.86316  0.37661  0.37500  Biso   1.000  Zn
  Zn5      1.0000 0.36316  0.12339  0.62500  Biso   1.000  Zn
  Zn6      1.0000 0.36316  0.12339  0.12500  Biso   1.000  Zn
  Zn7      1.0000 0.63684  0.87661  0.62500  Biso   1.000  Zn
  Zn8      1.0000 0.63684  0.87661  0.12500  Biso   1.000  Zn
  O1       1.0000 0.37005  0.57279  0.62500  Biso   1.000  O 
  O2       1.0000 0.37005  0.57279  0.12500  Biso   1.000  O 
  O3       1.0000 0.62995  0.42721  0.62500  Biso   1.000  O 
  O4       1.0000 0.62995  0.42721  0.12500  Biso   1.000  O 
  O5       1.0000 0.12995  0.07279  0.87500  Biso   1.000  O 
  O6       1.0000 0.12995  0.07279  0.37500  Biso   1.000  O 
  O7       1.0000 0.87005  0.92721  0.87500  Biso   1.000  O 
  O8       1.0000 0.87005  0.92721  0.37500  Biso   1.000  O 
  O9       1.0000 0.37849  0.59814  0.87500  Biso   1.000  O 
  O10      1.0000 0.37849  0.59814  0.37500  Biso   1.000  O 
  O11      1.0000 0.62151  0.40186  0.87500  Biso   1.000  O 
  O12      1.0000 0.62151  0.40186  0.37500  Biso   1.000  O 
  O13      1.0000 0.12151  0.09814  0.62500  Biso   1.000  O 
  O14      1.0000 0.12151  0.09814  0.12500  Biso   1.000  O 
  O15      1.0000 0.87849  0.90186  0.62500  Biso   1.000  O 
  O16      1.0000 0.87849  0.90186  0.12500  Biso   1.000  O 
  O17      1.0000 0.39531  0.89603  0.62500  Biso   1.000  O 
  O18      1.0000 0.39531  0.89603  0.12500  Biso   1.000  O 
  O19      1.0000 0.60469  0.10397  0.62500  Biso   1.000  O 
  O20      1.0000 0.60469  0.10397  0.12500  Biso   1.000  O 
  O21      1.0000 0.10469  0.39603  0.87500  Biso   1.000  O 
  O22      1.0000 0.10469  0.39603  0.37500  Biso   1.000  O 
  O23      1.0000 0.89531  0.60397  0.87500  Biso   1.000  O 
  O24      1.0000 0.89531  0.60397  0.37500  Biso   1.000  O 
  O25      1.0000 0.14349  0.75295  0.74021  Biso   1.000  O 
  O26      1.0000 0.14349  0.75295  0.24021  Biso   1.000  O 
  O27      1.0000 0.85651  0.24705  0.74021  Biso   1.000  O 
  O28      1.0000 0.85651  0.24705  0.24021  Biso   1.000  O 
  O29      1.0000 0.35651  0.25295  0.75979  Biso   1.000  O 
  O30      1.0000 0.35651  0.25295  0.25979  Biso   1.000  O 
  O31      1.0000 0.64349  0.74705  0.75979  Biso   1.000  O 
  O32      1.0000 0.64349  0.74705  0.25979  Biso   1.000  O 
  O33      1.0000 0.85651  0.24705  0.00979  Biso   1.000  O 
  O34      1.0000 0.85651  0.24705  0.50979  Biso   1.000  O 
  O35      1.0000 0.14349  0.75295  0.00979  Biso   1.000  O 
  O36      1.0000 0.14349  0.75295  0.50979  Biso   1.000  O 
  O37      1.0000 0.64349  0.74705  0.99021  Biso   1.000  O 
  O38      1.0000 0.64349  0.74705  0.49021  Biso   1.000  O 
  O39      1.0000 0.35651  0.25295  0.99021  Biso   1.000  O 
  O40      1.0000 0.35651  0.25295  0.49021  Biso   1.000  O 
  H1       1.0000 0.42244  0.70354  0.87500  Biso   1.000  H 
  H2       1.0000 0.42244  0.70354  0.37500  Biso   1.000  H 
  H3       1.0000 0.57756  0.29646  0.87500  Biso   1.000  H 
  H4       1.0000 0.57756  0.29646  0.37500  Biso   1.000  H 
  H5       1.0000 0.07756  0.20354  0.62500  Biso   1.000  H 
  H6       1.0000 0.07756  0.20354  0.12500  Biso   1.000  H 
  H7       1.0000 0.92244  0.79646  0.62500  Biso   1.000  H 
  H8       1.0000 0.92244  0.79646  0.12500  Biso   1.000  H 
