data_image0
_cell_length_a       6.90014
_cell_length_b       9.78574
_cell_length_c       16.7899
_cell_angle_alpha    90
_cell_angle_beta     90
_cell_angle_gamma    90

_symmetry_space_group_name_H-M    "P 1"
_symmetry_int_tables_number       1

loop_
  _symmetry_equiv_pos_as_xyz
  'x, y, z'

loop_
  _atom_site_label
  _atom_site_occupancy
  _atom_site_fract_x
  _atom_site_fract_y
  _atom_site_fract_z
  _atom_site_thermal_displace_type
  _atom_site_B_iso_or_equiv
  _atom_site_type_symbol
  Cs1      1.0000 0.86650  0.19614  0.07656  Biso   1.000  Cs
  Cs2      1.0000 0.36650  0.30386  0.92344  Biso   1.000  Cs
  Cs3      1.0000 0.13350  0.69614  0.42344  Biso   1.000  Cs
  Cs4      1.0000 0.63350  0.80386  0.57656  Biso   1.000  Cs
  Cs5      1.0000 0.13350  0.80386  0.92344  Biso   1.000  Cs
  Cs6      1.0000 0.63350  0.69614  0.07656  Biso   1.000  Cs
  Cs7      1.0000 0.86650  0.30386  0.57656  Biso   1.000  Cs
  Cs8      1.0000 0.36650  0.19614  0.42344  Biso   1.000  Cs
  As1      1.0000 0.76612  0.03045  0.28643  Biso   1.000  As
  As2      1.0000 0.26612  0.46955  0.71357  Biso   1.000  As
  As3      1.0000 0.23388  0.53045  0.21357  Biso   1.000  As
  As4      1.0000 0.73388  0.96955  0.78643  Biso   1.000  As
  As5      1.0000 0.23388  0.96955  0.71357  Biso   1.000  As
  As6      1.0000 0.73388  0.53045  0.28643  Biso   1.000  As
  As7      1.0000 0.76612  0.46955  0.78643  Biso   1.000  As
  As8      1.0000 0.26612  0.03045  0.21357  Biso   1.000  As
  Se1      1.0000 0.86693  0.02810  0.41994  Biso   1.000  Se
  Se2      1.0000 0.36693  0.47190  0.58006  Biso   1.000  Se
  Se3      1.0000 0.13307  0.52810  0.08006  Biso   1.000  Se
  Se4      1.0000 0.63307  0.97190  0.91994  Biso   1.000  Se
  Se5      1.0000 0.13307  0.97190  0.58006  Biso   1.000  Se
  Se6      1.0000 0.63307  0.52810  0.41994  Biso   1.000  Se
  Se7      1.0000 0.86693  0.47190  0.91994  Biso   1.000  Se
  Se8      1.0000 0.36693  0.02810  0.08006  Biso   1.000  Se
  Se9      1.0000 0.98600  0.87022  0.21492  Biso   1.000  Se
  Se10     1.0000 0.48600  0.62978  0.78508  Biso   1.000  Se
  Se11     1.0000 0.01400  0.37022  0.28508  Biso   1.000  Se
  Se12     1.0000 0.51400  0.12978  0.71492  Biso   1.000  Se
  Se13     1.0000 0.01400  0.12978  0.78508  Biso   1.000  Se
  Se14     1.0000 0.51400  0.37022  0.21492  Biso   1.000  Se
  Se15     1.0000 0.98600  0.62978  0.71492  Biso   1.000  Se
  Se16     1.0000 0.48600  0.87022  0.28508  Biso   1.000  Se
