data_image0
_cell_length_a       9.34293
_cell_length_b       7.9705
_cell_length_c       8.54463
_cell_angle_alpha    59.551
_cell_angle_beta     90
_cell_angle_gamma    90

_symmetry_space_group_name_H-M    "P 1"
_symmetry_int_tables_number       1

loop_
  _symmetry_equiv_pos_as_xyz
  'x, y, z'

loop_
  _atom_site_label
  _atom_site_occupancy
  _atom_site_fract_x
  _atom_site_fract_y
  _atom_site_fract_z
  _atom_site_thermal_displace_type
  _atom_site_B_iso_or_equiv
  _atom_site_type_symbol
  Cl1      1.0000 0.51729  0.23747  0.31391  Biso   1.000  Cl
  Cl2      1.0000 0.01729  0.76253  0.18609  Biso   1.000  Cl
  Cl3      1.0000 0.48271  0.76253  0.68609  Biso   1.000  Cl
  Cl4      1.0000 0.98271  0.23747  0.81391  Biso   1.000  Cl
  Cl5      1.0000 0.18962  0.42329  0.08094  Biso   1.000  Cl
  Cl6      1.0000 0.68962  0.57671  0.41906  Biso   1.000  Cl
  Cl7      1.0000 0.81038  0.57671  0.91906  Biso   1.000  Cl
  Cl8      1.0000 0.31038  0.42329  0.58094  Biso   1.000  Cl
  Cd1      1.0000 0.29359  0.04551  0.27738  Biso   1.000  Cd
  Cd2      1.0000 0.79359  0.95449  0.22262  Biso   1.000  Cd
  Cd3      1.0000 0.70641  0.95449  0.72262  Biso   1.000  Cd
  Cd4      1.0000 0.20641  0.04551  0.77738  Biso   1.000  Cd
  Cd5      1.0000 0.42550  0.56103  0.25161  Biso   1.000  Cd
  Cd6      1.0000 0.92550  0.43897  0.24839  Biso   1.000  Cd
  Cd7      1.0000 0.57450  0.43897  0.74839  Biso   1.000  Cd
  Cd8      1.0000 0.07450  0.56103  0.75161  Biso   1.000  Cd
  As1      1.0000 0.38003  0.93089  0.05536  Biso   1.000  As
  As2      1.0000 0.88003  0.06911  0.44464  Biso   1.000  As
  As3      1.0000 0.61997  0.06911  0.94464  Biso   1.000  As
  As4      1.0000 0.11997  0.93089  0.55536  Biso   1.000  As
