data_image0
_cell_length_a       6.38865
_cell_length_b       9.11368
_cell_length_c       9.65717
_cell_angle_alpha    90
_cell_angle_beta     90
_cell_angle_gamma    90

_symmetry_space_group_name_H-M    "P 1"
_symmetry_int_tables_number       1

loop_
  _symmetry_equiv_pos_as_xyz
  'x, y, z'

loop_
  _atom_site_label
  _atom_site_occupancy
  _atom_site_fract_x
  _atom_site_fract_y
  _atom_site_fract_z
  _atom_site_thermal_displace_type
  _atom_site_B_iso_or_equiv
  _atom_site_type_symbol
  Cr1      1.0000 0.74999  0.99987  0.87495  Biso   1.000  Cr
  Cr2      1.0000 0.74999  0.49987  0.12505  Biso   1.000  Cr
  Cr3      1.0000 0.25001  0.99987  0.87495  Biso   1.000  Cr
  Cr4      1.0000 0.25001  0.49987  0.12505  Biso   1.000  Cr
  Cr5      1.0000 0.74999  0.99987  0.37495  Biso   1.000  Cr
  Cr6      1.0000 0.74999  0.49987  0.62505  Biso   1.000  Cr
  Cr7      1.0000 0.25001  0.99987  0.37495  Biso   1.000  Cr
  Cr8      1.0000 0.25001  0.49987  0.62505  Biso   1.000  Cr
  As1      1.0000 0.50000  0.81895  0.11333  Biso   1.000  As
  As2      1.0000 0.50000  0.81895  0.61333  Biso   1.000  As
  As3      1.0000 0.50000  0.31895  0.88667  Biso   1.000  As
  As4      1.0000 0.50000  0.31895  0.38667  Biso   1.000  As
  As5      1.0000 0.00000  0.68098  0.36330  Biso   1.000  As
  As6      1.0000 0.00000  0.68098  0.86330  Biso   1.000  As
  As7      1.0000 0.00000  0.18098  0.13670  Biso   1.000  As
  As8      1.0000 0.00000  0.18098  0.63670  Biso   1.000  As
  O1       1.0000 0.50000  0.88533  0.28417  Biso   1.000  O 
  O2       1.0000 0.50000  0.88533  0.78417  Biso   1.000  O 
  O3       1.0000 0.50000  0.38533  0.21583  Biso   1.000  O 
  O4       1.0000 0.50000  0.38533  0.71583  Biso   1.000  O 
  O5       1.0000 0.00000  0.61480  0.03419  Biso   1.000  O 
  O6       1.0000 0.00000  0.61480  0.53419  Biso   1.000  O 
  O7       1.0000 0.00000  0.11480  0.96581  Biso   1.000  O 
  O8       1.0000 0.00000  0.11480  0.46581  Biso   1.000  O 
  O9       1.0000 0.50000  0.62836  0.07976  Biso   1.000  O 
  O10      1.0000 0.50000  0.62836  0.57976  Biso   1.000  O 
  O11      1.0000 0.50000  0.12836  0.92024  Biso   1.000  O 
  O12      1.0000 0.50000  0.12836  0.42024  Biso   1.000  O 
  O13      1.0000 0.00000  0.87165  0.32988  Biso   1.000  O 
  O14      1.0000 0.00000  0.87165  0.82988  Biso   1.000  O 
  O15      1.0000 0.00000  0.37165  0.17012  Biso   1.000  O 
  O16      1.0000 0.00000  0.37165  0.67012  Biso   1.000  O 
  O17      1.0000 0.72733  0.87359  0.03870  Biso   1.000  O 
  O18      1.0000 0.72733  0.87359  0.53870  Biso   1.000  O 
  O19      1.0000 0.72733  0.37359  0.96130  Biso   1.000  O 
  O20      1.0000 0.72733  0.37359  0.46130  Biso   1.000  O 
  O21      1.0000 0.27267  0.87359  0.03870  Biso   1.000  O 
  O22      1.0000 0.27267  0.87359  0.53870  Biso   1.000  O 
  O23      1.0000 0.22737  0.62650  0.28862  Biso   1.000  O 
  O24      1.0000 0.22737  0.62650  0.78862  Biso   1.000  O 
  O25      1.0000 0.77263  0.12650  0.21138  Biso   1.000  O 
  O26      1.0000 0.77263  0.12650  0.71138  Biso   1.000  O 
  O27      1.0000 0.77263  0.62650  0.28862  Biso   1.000  O 
  O28      1.0000 0.77263  0.62650  0.78862  Biso   1.000  O 
  O29      1.0000 0.22737  0.12650  0.21138  Biso   1.000  O 
  O30      1.0000 0.22737  0.12650  0.71138  Biso   1.000  O 
  O31      1.0000 0.27267  0.37359  0.96130  Biso   1.000  O 
  O32      1.0000 0.27267  0.37359  0.46130  Biso   1.000  O 
