data_image0
_cell_length_a       6.36696
_cell_length_b       6.36696
_cell_length_c       5.86487
_cell_angle_alpha    90
_cell_angle_beta     90
_cell_angle_gamma    74.2984

_symmetry_space_group_name_H-M    "P 1"
_symmetry_int_tables_number       1

loop_
  _symmetry_equiv_pos_as_xyz
  'x, y, z'

loop_
  _atom_site_label
  _atom_site_occupancy
  _atom_site_fract_x
  _atom_site_fract_y
  _atom_site_fract_z
  _atom_site_thermal_displace_type
  _atom_site_B_iso_or_equiv
  _atom_site_type_symbol
  Cu1      1.0000 0.50000  0.50000  0.50000  Biso   1.000  Cu
  Cu2      1.0000 0.50000  0.50000  0.00000  Biso   1.000  Cu
  K1       1.0000 0.02334  0.31602  0.25000  Biso   1.000  K 
  K2       1.0000 0.31602  0.02334  0.75000  Biso   1.000  K 
  K3       1.0000 0.97666  0.68398  0.75000  Biso   1.000  K 
  K4       1.0000 0.68398  0.97666  0.25000  Biso   1.000  K 
  As1      1.0000 0.25803  0.74197  0.25000  Biso   1.000  As
  As2      1.0000 0.74197  0.25803  0.75000  Biso   1.000  As
