data_image0
_cell_length_a       5.57945
_cell_length_b       5.57945
_cell_length_c       5.57945
_cell_angle_alpha    90
_cell_angle_beta     90
_cell_angle_gamma    90

_symmetry_space_group_name_H-M    "P 1"
_symmetry_int_tables_number       1

loop_
  _symmetry_equiv_pos_as_xyz
  'x, y, z'

loop_
  _atom_site_label
  _atom_site_occupancy
  _atom_site_fract_x
  _atom_site_fract_y
  _atom_site_fract_z
  _atom_site_thermal_displace_type
  _atom_site_B_iso_or_equiv
  _atom_site_type_symbol
  Co1      1.0000 0.49232  0.99232  0.50768  Biso   1.000  Co
  Co2      1.0000 0.99232  0.50768  0.49232  Biso   1.000  Co
  Co3      1.0000 0.50768  0.49232  0.99232  Biso   1.000  Co
  Co4      1.0000 0.00768  0.00768  0.00768  Biso   1.000  Co
  As1      1.0000 0.12096  0.62096  0.87904  Biso   1.000  As
  As2      1.0000 0.62096  0.87904  0.12096  Biso   1.000  As
  As3      1.0000 0.87904  0.12096  0.62096  Biso   1.000  As
  As4      1.0000 0.37904  0.37904  0.37904  Biso   1.000  As
  S1       1.0000 0.88227  0.38227  0.11773  Biso   1.000  S 
  S2       1.0000 0.38227  0.11773  0.88227  Biso   1.000  S 
  S3       1.0000 0.11773  0.88227  0.38227  Biso   1.000  S 
  S4       1.0000 0.61773  0.61773  0.61773  Biso   1.000  S 
