data_image0
_cell_length_a       6.40507
_cell_length_b       6.40507
_cell_length_c       6.40507
_cell_angle_alpha    40.2
_cell_angle_beta     40.2
_cell_angle_gamma    40.2

_symmetry_space_group_name_H-M    "P 1"
_symmetry_int_tables_number       1

loop_
  _symmetry_equiv_pos_as_xyz
  'x, y, z'

loop_
  _atom_site_label
  _atom_site_occupancy
  _atom_site_fract_x
  _atom_site_fract_y
  _atom_site_fract_z
  _atom_site_thermal_displace_type
  _atom_site_B_iso_or_equiv
  _atom_site_type_symbol
  Cu1      1.0000 0.49189  0.49189  0.49189  Biso   1.000  Cu
  As1      1.0000 0.99592  0.99592  0.99592  Biso   1.000  As
  Se1      1.0000 0.13159  0.13159  0.13159  Biso   1.000  Se
  Se2      1.0000 0.63160  0.63160  0.63160  Biso   1.000  Se
