data_image0
_cell_length_a       7.34521
_cell_length_b       7.34521
_cell_length_c       6.9355
_cell_angle_alpha    61.8286
_cell_angle_beta     61.8286
_cell_angle_gamma    95.7279

_symmetry_space_group_name_H-M    "P 1"
_symmetry_int_tables_number       1

loop_
  _symmetry_equiv_pos_as_xyz
  'x, y, z'

loop_
  _atom_site_label
  _atom_site_occupancy
  _atom_site_fract_x
  _atom_site_fract_y
  _atom_site_fract_z
  _atom_site_thermal_displace_type
  _atom_site_B_iso_or_equiv
  _atom_site_type_symbol
  As1      1.0000 1.00000  0.50000  0.00000  Biso   1.000  As
  As2      1.0000 0.50000  1.00000  0.00000  Biso   1.000  As
  Cu1      1.0000 0.50000  0.50000  0.00000  Biso   1.000  Cu
  Cu2      1.0000 1.00000  1.00000  0.50000  Biso   1.000  Cu
  F1       1.0000 0.70321  0.43285  0.14840  Biso   1.000  F 
  F2       1.0000 0.56715  0.29679  0.85160  Biso   1.000  F 
  F3       1.0000 0.20321  0.93285  0.21554  Biso   1.000  F 
  F4       1.0000 0.06715  0.79679  0.78446  Biso   1.000  F 
  F5       1.0000 0.29679  0.56715  0.85160  Biso   1.000  F 
  F6       1.0000 0.43285  0.70321  0.14840  Biso   1.000  F 
  F7       1.0000 0.79679  0.06715  0.78446  Biso   1.000  F 
  F8       1.0000 0.93285  0.20321  0.21554  Biso   1.000  F 
  F9       1.0000 0.03041  0.46959  0.75422  Biso   1.000  F 
  F10      1.0000 0.53041  0.96959  0.24578  Biso   1.000  F 
  F11      1.0000 0.96959  0.53041  0.24578  Biso   1.000  F 
  F12      1.0000 0.46959  0.03041  0.75422  Biso   1.000  F 
  F13      1.0000 0.75000  0.75000  0.65774  Biso   1.000  F 
  F14      1.0000 0.25000  0.25000  0.34226  Biso   1.000  F 
