data_image0
_cell_length_a       4.49407
_cell_length_b       7.60823
_cell_length_c       8.18354
_cell_angle_alpha    90
_cell_angle_beta     90
_cell_angle_gamma    90

_symmetry_space_group_name_H-M    "P 1"
_symmetry_int_tables_number       1

loop_
  _symmetry_equiv_pos_as_xyz
  'x, y, z'

loop_
  _atom_site_label
  _atom_site_occupancy
  _atom_site_fract_x
  _atom_site_fract_y
  _atom_site_fract_z
  _atom_site_thermal_displace_type
  _atom_site_B_iso_or_equiv
  _atom_site_type_symbol
  Cd1      1.0000 0.25000  0.65063  0.92573  Biso   1.000  Cd
  Cd2      1.0000 0.75000  0.34937  0.07427  Biso   1.000  Cd
  Cd3      1.0000 0.75000  0.84937  0.42573  Biso   1.000  Cd
  Cd4      1.0000 0.25000  0.15063  0.57427  Biso   1.000  Cd
  Na1      1.0000 0.25000  0.01843  0.17375  Biso   1.000  Na
  Na2      1.0000 0.75000  0.98157  0.82625  Biso   1.000  Na
  Na3      1.0000 0.75000  0.48157  0.67375  Biso   1.000  Na
  Na4      1.0000 0.25000  0.51843  0.32625  Biso   1.000  Na
  As1      1.0000 0.25000  0.77617  0.60802  Biso   1.000  As
  As2      1.0000 0.75000  0.22383  0.39198  Biso   1.000  As
  As3      1.0000 0.75000  0.72383  0.10802  Biso   1.000  As
  As4      1.0000 0.25000  0.27617  0.89198  Biso   1.000  As
