data_image0
_cell_length_a       6.72242
_cell_length_b       6.84457
_cell_length_c       9.93462
_cell_angle_alpha    90.959
_cell_angle_beta     90.0935
_cell_angle_gamma    90.0491

_symmetry_space_group_name_H-M    "P 1"
_symmetry_int_tables_number       1

loop_
  _symmetry_equiv_pos_as_xyz
  'x, y, z'

loop_
  _atom_site_label
  _atom_site_occupancy
  _atom_site_fract_x
  _atom_site_fract_y
  _atom_site_fract_z
  _atom_site_thermal_displace_type
  _atom_site_B_iso_or_equiv
  _atom_site_type_symbol
  Co1      1.0000 0.50000  1.00000  0.00000  Biso   1.000  Co
  Co2      1.0000 0.00000  0.00000  0.50000  Biso   1.000  Co
  Co3      1.0000 0.50000  0.00000  0.50000  Biso   1.000  Co
  Co4      1.0000 0.00000  0.00000  0.00000  Biso   1.000  Co
  Co5      1.0000 0.75000  0.26347  0.17422  Biso   1.000  Co
  Co6      1.0000 0.25000  0.73653  0.82578  Biso   1.000  Co
  Co7      1.0000 0.75000  0.26347  0.67422  Biso   1.000  Co
  Co8      1.0000 0.25000  0.73653  0.32578  Biso   1.000  Co
  As1      1.0000 0.25001  0.24102  0.75350  Biso   1.000  As
  As2      1.0000 0.25001  0.24102  0.25350  Biso   1.000  As
  As3      1.0000 0.74999  0.75898  0.74650  Biso   1.000  As
  As4      1.0000 0.74999  0.75898  0.24650  Biso   1.000  As
  Cl1      1.0000 0.74980  0.24004  0.91708  Biso   1.000  Cl
  Cl2      1.0000 0.74980  0.24004  0.41708  Biso   1.000  Cl
  Cl3      1.0000 0.25020  0.75996  0.58292  Biso   1.000  Cl
  Cl4      1.0000 0.25020  0.75996  0.08292  Biso   1.000  Cl
  O1       1.0000 0.25009  0.45428  0.83971  Biso   1.000  O 
  O2       1.0000 0.25009  0.45428  0.33971  Biso   1.000  O 
  O3       1.0000 0.74991  0.54572  0.66029  Biso   1.000  O 
  O4       1.0000 0.74991  0.54572  0.16029  Biso   1.000  O 
  O5       1.0000 0.24979  0.05928  0.87839  Biso   1.000  O 
  O6       1.0000 0.24979  0.05928  0.37839  Biso   1.000  O 
  O7       1.0000 0.75021  0.94072  0.62161  Biso   1.000  O 
  O8       1.0000 0.75021  0.94072  0.12161  Biso   1.000  O 
  O9       1.0000 0.04439  0.20236  0.65108  Biso   1.000  O 
  O10      1.0000 0.04439  0.20236  0.15108  Biso   1.000  O 
  O11      1.0000 0.54490  0.79759  0.84883  Biso   1.000  O 
  O12      1.0000 0.54490  0.79759  0.34883  Biso   1.000  O 
  O13      1.0000 0.95561  0.79764  0.84892  Biso   1.000  O 
  O14      1.0000 0.95561  0.79764  0.34892  Biso   1.000  O 
  O15      1.0000 0.45510  0.20241  0.65117  Biso   1.000  O 
  O16      1.0000 0.45510  0.20241  0.15117  Biso   1.000  O 
