data_image0
_cell_length_a       5.94328
_cell_length_b       7.54512
_cell_length_c       9.05242
_cell_angle_alpha    90
_cell_angle_beta     90
_cell_angle_gamma    90

_symmetry_space_group_name_H-M    "P 1"
_symmetry_int_tables_number       1

loop_
  _symmetry_equiv_pos_as_xyz
  'x, y, z'

loop_
  _atom_site_label
  _atom_site_occupancy
  _atom_site_fract_x
  _atom_site_fract_y
  _atom_site_fract_z
  _atom_site_thermal_displace_type
  _atom_site_B_iso_or_equiv
  _atom_site_type_symbol
  Ca1      1.0000 0.97498  0.62889  0.17391  Biso   1.000  Ca
  Ca2      1.0000 0.47498  0.87111  0.82609  Biso   1.000  Ca
  Ca3      1.0000 0.02502  0.12889  0.32609  Biso   1.000  Ca
  Ca4      1.0000 0.52502  0.37111  0.67391  Biso   1.000  Ca
  Zn1      1.0000 0.73999  0.23504  0.00538  Biso   1.000  Zn
  Zn2      1.0000 0.23999  0.26496  0.99462  Biso   1.000  Zn
  Zn3      1.0000 0.26001  0.73504  0.49462  Biso   1.000  Zn
  Zn4      1.0000 0.76001  0.76496  0.50538  Biso   1.000  Zn
  As1      1.0000 0.01654  0.62377  0.82318  Biso   1.000  As
  As2      1.0000 0.51654  0.87623  0.17682  Biso   1.000  As
  As3      1.0000 0.98346  0.12377  0.67682  Biso   1.000  As
  As4      1.0000 0.48346  0.37623  0.32318  Biso   1.000  As
  O1       1.0000 0.99051  0.44369  0.94231  Biso   1.000  O 
  O2       1.0000 0.49051  0.05631  0.05769  Biso   1.000  O 
  O3       1.0000 0.00949  0.94369  0.55769  Biso   1.000  O 
  O4       1.0000 0.50949  0.55631  0.44231  Biso   1.000  O 
  O5       1.0000 0.08763  0.79353  0.94149  Biso   1.000  O 
  O6       1.0000 0.58763  0.70647  0.05851  Biso   1.000  O 
  O7       1.0000 0.91237  0.29353  0.55851  Biso   1.000  O 
  O8       1.0000 0.41237  0.20647  0.44149  Biso   1.000  O 
  O9       1.0000 0.73426  0.34945  0.22917  Biso   1.000  O 
  O10      1.0000 0.23426  0.15055  0.77083  Biso   1.000  O 
  O11      1.0000 0.26574  0.84945  0.27083  Biso   1.000  O 
  O12      1.0000 0.76574  0.65055  0.72917  Biso   1.000  O 
  O13      1.0000 0.25168  0.39162  0.20811  Biso   1.000  O 
  O14      1.0000 0.75168  0.10838  0.79189  Biso   1.000  O 
  O15      1.0000 0.74832  0.89162  0.29189  Biso   1.000  O 
  O16      1.0000 0.24832  0.60838  0.70811  Biso   1.000  O 
  O17      1.0000 0.00555  0.11315  0.06847  Biso   1.000  O 
  O18      1.0000 0.50555  0.38685  0.93153  Biso   1.000  O 
  O19      1.0000 0.99445  0.61315  0.43153  Biso   1.000  O 
  O20      1.0000 0.49445  0.88685  0.56847  Biso   1.000  O 
  H1       1.0000 0.01860  0.99702  0.01766  Biso   1.000  H 
  H2       1.0000 0.51860  0.50298  0.98234  Biso   1.000  H 
  H3       1.0000 0.98140  0.49702  0.48234  Biso   1.000  H 
  H4       1.0000 0.48140  0.00298  0.51766  Biso   1.000  H 
