data_image0
_cell_length_a       11.0647
_cell_length_b       11.0647
_cell_length_c       11.3657
_cell_angle_alpha    90.0002
_cell_angle_beta     90.0006
_cell_angle_gamma    120

_symmetry_space_group_name_H-M    "P 1"
_symmetry_int_tables_number       1

loop_
  _symmetry_equiv_pos_as_xyz
  'x, y, z'

loop_
  _atom_site_label
  _atom_site_occupancy
  _atom_site_fract_x
  _atom_site_fract_y
  _atom_site_fract_z
  _atom_site_thermal_displace_type
  _atom_site_B_iso_or_equiv
  _atom_site_type_symbol
  As1      1.0000 1.00000  0.32745  0.34425  Biso   1.000  As
  As2      1.0000 0.00002  0.67255  0.84424  Biso   1.000  As
  As3      1.0000 0.32748  0.32749  0.84425  Biso   1.000  As
  As4      1.0000 0.67255  0.00003  0.84424  Biso   1.000  As
  As5      1.0000 0.67253  0.67251  0.34424  Biso   1.000  As
  As6      1.0000 0.32746  0.99998  0.34424  Biso   1.000  As
  Cs1      1.0000 0.62726  1.00000  0.51242  Biso   1.000  Cs
  Cs2      1.0000 0.62726  0.62726  0.01243  Biso   1.000  Cs
  Cs3      1.0000 0.37275  1.00000  0.01242  Biso   1.000  Cs
  Cs4      1.0000 0.00001  0.37274  0.01242  Biso   1.000  Cs
  Cs5      1.0000 0.37275  0.37274  0.51242  Biso   1.000  Cs
  Cs6      1.0000 0.00001  0.62726  0.51242  Biso   1.000  Cs
  Cs7      1.0000 0.71126  0.99999  0.17592  Biso   1.000  Cs
  Cs8      1.0000 0.71128  0.71128  0.67592  Biso   1.000  Cs
  Cs9      1.0000 0.28874  0.00001  0.67592  Biso   1.000  Cs
  Cs10     1.0000 0.00001  0.28874  0.67592  Biso   1.000  Cs
  Cs11     1.0000 0.28874  0.28872  0.17592  Biso   1.000  Cs
  Cs12     1.0000 0.00000  0.71127  0.17592  Biso   1.000  Cs
  Cs13     1.0000 1.00000  0.99999  0.41280  Biso   1.000  Cs
  Cs14     1.0000 0.00001  0.00001  0.91280  Biso   1.000  Cs
  Cs15     1.0000 0.66667  0.33333  0.30172  Biso   1.000  Cs
  Cs16     1.0000 0.66667  0.33334  0.80173  Biso   1.000  Cs
  Cs17     1.0000 0.33334  0.66667  0.80172  Biso   1.000  Cs
  Cs18     1.0000 0.33333  0.66666  0.30172  Biso   1.000  Cs
