data_image0
_cell_length_a       6.10129
_cell_length_b       7.73857
_cell_length_c       9.32668
_cell_angle_alpha    90
_cell_angle_beta     90
_cell_angle_gamma    90

_symmetry_space_group_name_H-M    "P 1"
_symmetry_int_tables_number       1

loop_
  _symmetry_equiv_pos_as_xyz
  'x, y, z'

loop_
  _atom_site_label
  _atom_site_occupancy
  _atom_site_fract_x
  _atom_site_fract_y
  _atom_site_fract_z
  _atom_site_thermal_displace_type
  _atom_site_B_iso_or_equiv
  _atom_site_type_symbol
  Sr1      1.0000 0.97301  0.11759  0.16840  Biso   1.000  Sr
  Sr2      1.0000 0.47301  0.88241  0.83160  Biso   1.000  Sr
  Sr3      1.0000 0.02699  0.61759  0.33160  Biso   1.000  Sr
  Sr4      1.0000 0.52699  0.38241  0.66840  Biso   1.000  Sr
  Co1      1.0000 0.74162  0.50917  0.00654  Biso   1.000  Co
  Co2      1.0000 0.24162  0.49083  0.99346  Biso   1.000  Co
  Co3      1.0000 0.25838  0.00917  0.49346  Biso   1.000  Co
  Co4      1.0000 0.75838  0.99083  0.50654  Biso   1.000  Co
  As1      1.0000 0.01379  0.13055  0.81452  Biso   1.000  As
  As2      1.0000 0.51379  0.86945  0.18548  Biso   1.000  As
  As3      1.0000 0.98621  0.63055  0.68548  Biso   1.000  As
  As4      1.0000 0.48621  0.36945  0.31452  Biso   1.000  As
  O1       1.0000 0.99139  0.30771  0.93002  Biso   1.000  O 
  O2       1.0000 0.49139  0.69229  0.06998  Biso   1.000  O 
  O3       1.0000 0.00861  0.80771  0.56998  Biso   1.000  O 
  O4       1.0000 0.50861  0.19229  0.43002  Biso   1.000  O 
  O5       1.0000 0.06902  0.96005  0.92736  Biso   1.000  O 
  O6       1.0000 0.56902  0.03995  0.07264  Biso   1.000  O 
  O7       1.0000 0.93098  0.46005  0.57264  Biso   1.000  O 
  O8       1.0000 0.43098  0.53995  0.42736  Biso   1.000  O 
  O9       1.0000 0.73128  0.39401  0.22245  Biso   1.000  O 
  O10      1.0000 0.23128  0.60599  0.77755  Biso   1.000  O 
  O11      1.0000 0.26872  0.89401  0.27755  Biso   1.000  O 
  O12      1.0000 0.76872  0.10599  0.72245  Biso   1.000  O 
  O13      1.0000 0.25832  0.35890  0.20390  Biso   1.000  O 
  O14      1.0000 0.75832  0.64110  0.79610  Biso   1.000  O 
  O15      1.0000 0.74168  0.85890  0.29610  Biso   1.000  O 
  O16      1.0000 0.24168  0.14110  0.70390  Biso   1.000  O 
  O17      1.0000 0.00271  0.64243  0.06451  Biso   1.000  O 
  O18      1.0000 0.50271  0.35757  0.93549  Biso   1.000  O 
  O19      1.0000 0.99729  0.14243  0.43549  Biso   1.000  O 
  O20      1.0000 0.49729  0.85757  0.56451  Biso   1.000  O 
  H1       1.0000 0.00990  0.75277  0.01161  Biso   1.000  H 
  H2       1.0000 0.50990  0.24723  0.98839  Biso   1.000  H 
  H3       1.0000 0.99010  0.25277  0.48839  Biso   1.000  H 
  H4       1.0000 0.49010  0.74723  0.51161  Biso   1.000  H 
