data_image0
_cell_length_a       10.9418
_cell_length_b       12.5931
_cell_length_c       3.6403
_cell_angle_alpha    90
_cell_angle_beta     90
_cell_angle_gamma    90

_symmetry_space_group_name_H-M    "P 1"
_symmetry_int_tables_number       1

loop_
  _symmetry_equiv_pos_as_xyz
  'x, y, z'

loop_
  _atom_site_label
  _atom_site_occupancy
  _atom_site_fract_x
  _atom_site_fract_y
  _atom_site_fract_z
  _atom_site_thermal_displace_type
  _atom_site_B_iso_or_equiv
  _atom_site_type_symbol
  As1      1.0000 0.30675  0.28999  0.51695  Biso   1.000  As
  As2      1.0000 0.69325  0.78999  0.98305  Biso   1.000  As
  As3      1.0000 0.80675  0.21001  0.48305  Biso   1.000  As
  As4      1.0000 0.19325  0.71001  0.01695  Biso   1.000  As
  Cl1      1.0000 0.30255  0.13356  0.22066  Biso   1.000  Cl
  Cl2      1.0000 0.69745  0.63356  0.27934  Biso   1.000  Cl
  Cl3      1.0000 0.80255  0.36644  0.77934  Biso   1.000  Cl
  Cl4      1.0000 0.19745  0.86644  0.72066  Biso   1.000  Cl
  Cl5      1.0000 0.15359  0.37216  0.22132  Biso   1.000  Cl
  Cl6      1.0000 0.84641  0.87216  0.27868  Biso   1.000  Cl
  Cl7      1.0000 0.65359  0.12784  0.77868  Biso   1.000  Cl
  Cl8      1.0000 0.34641  0.62784  0.72132  Biso   1.000  Cl
  Cl9      1.0000 0.46493  0.36533  0.22520  Biso   1.000  Cl
  Cl10     1.0000 0.53507  0.86533  0.27480  Biso   1.000  Cl
  Cl11     1.0000 0.96493  0.13467  0.77480  Biso   1.000  Cl
  Cl12     1.0000 0.03507  0.63467  0.72520  Biso   1.000  Cl
