data_image0
_cell_length_a       9.06507
_cell_length_b       5.99814
_cell_length_c       7.5853
_cell_angle_alpha    90
_cell_angle_beta     90
_cell_angle_gamma    90

_symmetry_space_group_name_H-M    "P 1"
_symmetry_int_tables_number       1

loop_
  _symmetry_equiv_pos_as_xyz
  'x, y, z'

loop_
  _atom_site_label
  _atom_site_occupancy
  _atom_site_fract_x
  _atom_site_fract_y
  _atom_site_fract_z
  _atom_site_thermal_displace_type
  _atom_site_B_iso_or_equiv
  _atom_site_type_symbol
  Ca1      1.0000 0.17168  0.72651  0.62813  Biso   1.000  Ca
  Ca2      1.0000 0.82832  0.22651  0.87187  Biso   1.000  Ca
  Ca3      1.0000 0.32832  0.77349  0.12813  Biso   1.000  Ca
  Ca4      1.0000 0.67168  0.27349  0.37187  Biso   1.000  Ca
  Co1      1.0000 0.99415  0.99419  0.25896  Biso   1.000  Co
  Co2      1.0000 0.49415  0.00581  0.74104  Biso   1.000  Co
  Co3      1.0000 0.00585  0.49419  0.24104  Biso   1.000  Co
  Co4      1.0000 0.50585  0.50581  0.75896  Biso   1.000  Co
  As1      1.0000 0.82211  0.76740  0.62279  Biso   1.000  As
  As2      1.0000 0.17789  0.26740  0.87722  Biso   1.000  As
  As3      1.0000 0.67789  0.73260  0.12278  Biso   1.000  As
  As4      1.0000 0.32211  0.23260  0.37722  Biso   1.000  As
  O1       1.0000 0.94307  0.74005  0.44513  Biso   1.000  O 
  O2       1.0000 0.05693  0.24005  0.05487  Biso   1.000  O 
  O3       1.0000 0.55693  0.75995  0.94513  Biso   1.000  O 
  O4       1.0000 0.44307  0.25995  0.55487  Biso   1.000  O 
  O5       1.0000 0.06015  0.34110  0.70864  Biso   1.000  O 
  O6       1.0000 0.93985  0.84110  0.79136  Biso   1.000  O 
  O7       1.0000 0.43985  0.15890  0.20864  Biso   1.000  O 
  O8       1.0000 0.56015  0.65890  0.29136  Biso   1.000  O 
  O9       1.0000 0.22946  0.48321  0.34991  Biso   1.000  O 
  O10      1.0000 0.77054  0.98321  0.15009  Biso   1.000  O 
  O11      1.0000 0.27054  0.01679  0.84991  Biso   1.000  O 
  O12      1.0000 0.72946  0.51679  0.65009  Biso   1.000  O 
  O13      1.0000 0.20623  0.00380  0.39360  Biso   1.000  O 
  O14      1.0000 0.79377  0.50380  0.10640  Biso   1.000  O 
  O15      1.0000 0.29377  0.49620  0.89360  Biso   1.000  O 
  O16      1.0000 0.70623  0.99620  0.60640  Biso   1.000  O 
  O17      1.0000 0.92724  0.25523  0.39473  Biso   1.000  O 
  O18      1.0000 0.07276  0.75523  0.10527  Biso   1.000  O 
  O19      1.0000 0.57276  0.24477  0.89473  Biso   1.000  O 
  O20      1.0000 0.42724  0.74477  0.60527  Biso   1.000  O 
  H1       1.0000 0.97755  0.26748  0.51040  Biso   1.000  H 
  H2       1.0000 0.02245  0.76748  0.98960  Biso   1.000  H 
  H3       1.0000 0.52245  0.23252  0.01040  Biso   1.000  H 
  H4       1.0000 0.47755  0.73252  0.48960  Biso   1.000  H 
