data_image0
_cell_length_a       12.5033
_cell_length_b       12.5033
_cell_length_c       10.5888
_cell_angle_alpha    89.9996
_cell_angle_beta     90.0008
_cell_angle_gamma    120

_symmetry_space_group_name_H-M    "P 1"
_symmetry_int_tables_number       1

loop_
  _symmetry_equiv_pos_as_xyz
  'x, y, z'

loop_
  _atom_site_label
  _atom_site_occupancy
  _atom_site_fract_x
  _atom_site_fract_y
  _atom_site_fract_z
  _atom_site_thermal_displace_type
  _atom_site_B_iso_or_equiv
  _atom_site_type_symbol
  As1      1.0000 0.46217  0.00000  0.00000  Biso   1.000  As
  As2      1.0000 0.53783  0.53783  1.00000  Biso   1.000  As
  As3      1.0000 0.00000  0.46217  1.00000  Biso   1.000  As
  As4      1.0000 0.11556  0.34635  0.00000  Biso   1.000  As
  As5      1.0000 0.88444  0.23078  0.00000  Biso   1.000  As
  As6      1.0000 0.76922  0.65366  1.00000  Biso   1.000  As
  As7      1.0000 0.34634  0.11556  1.00000  Biso   1.000  As
  As8      1.0000 0.23078  0.88444  1.00000  Biso   1.000  As
  As9      1.0000 0.65366  0.76922  0.00000  Biso   1.000  As
  As10     1.0000 0.11476  0.00000  0.50000  Biso   1.000  As
  As11     1.0000 0.88524  0.88524  0.50000  Biso   1.000  As
  As12     1.0000 0.00000  0.11476  0.50000  Biso   1.000  As
  As13     1.0000 0.32239  0.54638  0.50000  Biso   1.000  As
  As14     1.0000 0.67762  0.22400  0.50000  Biso   1.000  As
  As15     1.0000 0.77601  0.45363  0.50000  Biso   1.000  As
  As16     1.0000 0.54638  0.32239  0.50000  Biso   1.000  As
  As17     1.0000 0.22400  0.67762  0.50001  Biso   1.000  As
  As18     1.0000 0.45362  0.77601  0.49999  Biso   1.000  As
  Cs1      1.0000 0.36645  0.00001  0.31460  Biso   1.000  Cs
  Cs2      1.0000 0.63356  0.63356  0.68540  Biso   1.000  Cs
  Cs3      1.0000 0.36645  0.00000  0.68540  Biso   1.000  Cs
  Cs4      1.0000 0.00000  0.36645  0.68540  Biso   1.000  Cs
  Cs5      1.0000 0.63355  0.63356  0.31460  Biso   1.000  Cs
  Cs6      1.0000 0.00000  0.36644  0.31460  Biso   1.000  Cs
  Cs7      1.0000 0.33331  0.66668  0.18046  Biso   1.000  Cs
  Cs8      1.0000 0.66668  0.33337  0.81954  Biso   1.000  Cs
  Cs9      1.0000 0.66668  0.33337  0.18046  Biso   1.000  Cs
  Cs10     1.0000 0.33337  0.66668  0.81954  Biso   1.000  Cs
  Cs11     1.0000 0.69484  0.00000  0.26529  Biso   1.000  Cs
  Cs12     1.0000 0.30516  0.30516  0.73471  Biso   1.000  Cs
  Cs13     1.0000 0.69484  0.00001  0.73471  Biso   1.000  Cs
  Cs14     1.0000 0.00001  0.69484  0.73471  Biso   1.000  Cs
  Cs15     1.0000 0.30516  0.30516  0.26529  Biso   1.000  Cs
  Cs16     1.0000 0.00000  0.69485  0.26529  Biso   1.000  Cs
  Cs17     1.0000 1.00000  0.00000  0.18195  Biso   1.000  Cs
  Cs18     1.0000 0.00000  0.00000  0.81805  Biso   1.000  Cs
