data_image0
_cell_length_a       8.96145
_cell_length_b       8.96145
_cell_length_c       6.46133
_cell_angle_alpha    90
_cell_angle_beta     90
_cell_angle_gamma    90

_symmetry_space_group_name_H-M    "P 1"
_symmetry_int_tables_number       1

loop_
  _symmetry_equiv_pos_as_xyz
  'x, y, z'

loop_
  _atom_site_label
  _atom_site_occupancy
  _atom_site_fract_x
  _atom_site_fract_y
  _atom_site_fract_z
  _atom_site_thermal_displace_type
  _atom_site_B_iso_or_equiv
  _atom_site_type_symbol
  As1      1.0000 0.75000  0.25000  0.00000  Biso   1.000  As
  As2      1.0000 0.25000  0.75000  0.00000  Biso   1.000  As
  As3      1.0000 0.25000  0.25000  0.66969  Biso   1.000  As
  As4      1.0000 0.75000  0.75000  0.33031  Biso   1.000  As
  F1       1.0000 0.25000  0.25000  0.39410  Biso   1.000  F 
  F2       1.0000 0.75000  0.75000  0.60590  Biso   1.000  F 
  F3       1.0000 0.25000  0.25000  0.94276  Biso   1.000  F 
  F4       1.0000 0.75000  0.75000  0.05724  Biso   1.000  F 
  F5       1.0000 0.18615  0.06197  0.66778  Biso   1.000  F 
  F6       1.0000 0.93803  0.68615  0.33222  Biso   1.000  F 
  F7       1.0000 0.56197  0.81385  0.33222  Biso   1.000  F 
  F8       1.0000 0.68615  0.56197  0.33222  Biso   1.000  F 
  F9       1.0000 0.81385  0.93803  0.33222  Biso   1.000  F 
  F10      1.0000 0.06197  0.31385  0.66778  Biso   1.000  F 
  F11      1.0000 0.43803  0.18615  0.66778  Biso   1.000  F 
  F12      1.0000 0.31385  0.43803  0.66778  Biso   1.000  F 
  Cl1      1.0000 0.79182  0.06531  0.81033  Biso   1.000  Cl
  Cl2      1.0000 0.93469  0.29182  0.18967  Biso   1.000  Cl
  Cl3      1.0000 0.56531  0.20818  0.18967  Biso   1.000  Cl
  Cl4      1.0000 0.29182  0.56531  0.18967  Biso   1.000  Cl
  Cl5      1.0000 0.20818  0.93469  0.18967  Biso   1.000  Cl
  Cl6      1.0000 0.06531  0.70818  0.81033  Biso   1.000  Cl
  Cl7      1.0000 0.43469  0.79182  0.81033  Biso   1.000  Cl
  Cl8      1.0000 0.70818  0.43469  0.81033  Biso   1.000  Cl
