data_image0
_cell_length_a       6.42452
_cell_length_b       6.60814
_cell_length_c       9.59191
_cell_angle_alpha    77.3068
_cell_angle_beta     90
_cell_angle_gamma    90

_symmetry_space_group_name_H-M    "P 1"
_symmetry_int_tables_number       1

loop_
  _symmetry_equiv_pos_as_xyz
  'x, y, z'

loop_
  _atom_site_label
  _atom_site_occupancy
  _atom_site_fract_x
  _atom_site_fract_y
  _atom_site_fract_z
  _atom_site_thermal_displace_type
  _atom_site_B_iso_or_equiv
  _atom_site_type_symbol
  As1      1.0000 0.74495  0.79801  0.25941  Biso   1.000  As
  As2      1.0000 0.24495  0.20199  0.74059  Biso   1.000  As
  Cu1      1.0000 0.74543  0.29413  0.55874  Biso   1.000  Cu
  Cu2      1.0000 0.24543  0.70587  0.44126  Biso   1.000  Cu
  Cu3      1.0000 0.72700  0.07136  0.87287  Biso   1.000  Cu
  Cu4      1.0000 0.22700  0.92864  0.12713  Biso   1.000  Cu
  Cu5      1.0000 0.59711  0.63627  0.60889  Biso   1.000  Cu
  Cu6      1.0000 0.09711  0.36373  0.39111  Biso   1.000  Cu
  Cu7      1.0000 0.95420  0.98020  0.48376  Biso   1.000  Cu
  Cu8      1.0000 0.45420  0.01980  0.51624  Biso   1.000  Cu
  S1       1.0000 0.72515  0.93747  0.65699  Biso   1.000  S 
  S2       1.0000 0.22515  0.06253  0.34301  Biso   1.000  S 
  S3       1.0000 0.54717  0.53321  0.39723  Biso   1.000  S 
  S4       1.0000 0.04717  0.46679  0.60277  Biso   1.000  S 
  S5       1.0000 0.55191  0.84821  0.05358  Biso   1.000  S 
  S6       1.0000 0.05191  0.15179  0.94642  Biso   1.000  S 
  S7       1.0000 0.01679  0.61886  0.19608  Biso   1.000  S 
  S8       1.0000 0.51679  0.38114  0.80392  Biso   1.000  S 
  K1       1.0000 0.11578  0.67688  0.86527  Biso   1.000  K 
  K2       1.0000 0.61578  0.32312  0.13473  Biso   1.000  K 
