data_image0
_cell_length_a       7.39023
_cell_length_b       7.90478
_cell_length_c       6.53908
_cell_angle_alpha    90
_cell_angle_beta     90
_cell_angle_gamma    90

_symmetry_space_group_name_H-M    "P 1"
_symmetry_int_tables_number       1

loop_
  _symmetry_equiv_pos_as_xyz
  'x, y, z'

loop_
  _atom_site_label
  _atom_site_occupancy
  _atom_site_fract_x
  _atom_site_fract_y
  _atom_site_fract_z
  _atom_site_thermal_displace_type
  _atom_site_B_iso_or_equiv
  _atom_site_type_symbol
  As1      1.0000 0.75000  0.25000  0.17488  Biso   1.000  As
  As2      1.0000 0.25000  0.75000  0.82512  Biso   1.000  As
  Cl1      1.0000 0.49852  0.25000  0.34794  Biso   1.000  Cl
  Cl2      1.0000 0.99852  0.75000  0.65206  Biso   1.000  Cl
  Cl3      1.0000 0.50148  0.75000  0.65206  Biso   1.000  Cl
  Cl4      1.0000 0.00148  0.25000  0.34794  Biso   1.000  Cl
  Cl5      1.0000 0.75000  0.25000  0.84274  Biso   1.000  Cl
  Cl6      1.0000 0.25000  0.75000  0.15726  Biso   1.000  Cl
  Cl7      1.0000 0.75000  0.96461  0.17394  Biso   1.000  Cl
  Cl8      1.0000 0.25000  0.46461  0.82606  Biso   1.000  Cl
  Cl9      1.0000 0.25000  0.03539  0.82606  Biso   1.000  Cl
  Cl10     1.0000 0.75000  0.53539  0.17394  Biso   1.000  Cl
