data_image0
_cell_length_a       8.0619
_cell_length_b       8.0619
_cell_length_c       10.9762
_cell_angle_alpha    62.6608
_cell_angle_beta     62.6608
_cell_angle_gamma    51.363

_symmetry_space_group_name_H-M    "P 1"
_symmetry_int_tables_number       1

loop_
  _symmetry_equiv_pos_as_xyz
  'x, y, z'

loop_
  _atom_site_label
  _atom_site_occupancy
  _atom_site_fract_x
  _atom_site_fract_y
  _atom_site_fract_z
  _atom_site_thermal_displace_type
  _atom_site_B_iso_or_equiv
  _atom_site_type_symbol
  Cd1      1.0000 0.79289  0.31212  0.50903  Biso   1.000  Cd
  Cd2      1.0000 0.68788  0.20711  0.99097  Biso   1.000  Cd
  Cd3      1.0000 0.20711  0.68788  0.49097  Biso   1.000  Cd
  Cd4      1.0000 0.31212  0.79289  0.00903  Biso   1.000  Cd
  Cd5      1.0000 0.95036  0.74201  0.84862  Biso   1.000  Cd
  Cd6      1.0000 0.25799  0.04964  0.65138  Biso   1.000  Cd
  Cd7      1.0000 0.04964  0.25799  0.15138  Biso   1.000  Cd
  Cd8      1.0000 0.74201  0.95036  0.34862  Biso   1.000  Cd
  As1      1.0000 0.77097  0.58311  0.69318  Biso   1.000  As
  As2      1.0000 0.41689  0.22903  0.80682  Biso   1.000  As
  As3      1.0000 0.22903  0.41689  0.30682  Biso   1.000  As
  As4      1.0000 0.58311  0.77097  0.19318  Biso   1.000  As
  O1       1.0000 0.21731  0.39511  0.92143  Biso   1.000  O 
  O2       1.0000 0.60489  0.78269  0.57857  Biso   1.000  O 
  O3       1.0000 0.78269  0.60489  0.07857  Biso   1.000  O 
  O4       1.0000 0.39511  0.21731  0.42143  Biso   1.000  O 
  O5       1.0000 0.05336  0.35675  0.31421  Biso   1.000  O 
  O6       1.0000 0.64325  0.94664  0.18579  Biso   1.000  O 
  O7       1.0000 0.94664  0.64325  0.68579  Biso   1.000  O 
  O8       1.0000 0.35675  0.05336  0.81421  Biso   1.000  O 
  O9       1.0000 0.38141  0.45473  0.13554  Biso   1.000  O 
  O10      1.0000 0.54527  0.61859  0.36446  Biso   1.000  O 
  O11      1.0000 0.61859  0.54527  0.86446  Biso   1.000  O 
  O12      1.0000 0.45473  0.38141  0.63554  Biso   1.000  O 
  O13      1.0000 0.08159  0.65642  0.35846  Biso   1.000  O 
  O14      1.0000 0.34358  0.91841  0.14154  Biso   1.000  O 
  O15      1.0000 0.91841  0.34358  0.64154  Biso   1.000  O 
  O16      1.0000 0.65642  0.08159  0.85846  Biso   1.000  O 
  F1       1.0000 0.92484  0.09768  0.11114  Biso   1.000  F 
  F2       1.0000 0.90232  0.07516  0.38886  Biso   1.000  F 
  F3       1.0000 0.07516  0.90232  0.88886  Biso   1.000  F 
  F4       1.0000 0.09768  0.92484  0.61114  Biso   1.000  F 
