data_image0
_cell_length_a       9.44318
_cell_length_b       5.87317
_cell_length_c       7.44932
_cell_angle_alpha    90
_cell_angle_beta     90
_cell_angle_gamma    90

_symmetry_space_group_name_H-M    "P 1"
_symmetry_int_tables_number       1

loop_
  _symmetry_equiv_pos_as_xyz
  'x, y, z'

loop_
  _atom_site_label
  _atom_site_occupancy
  _atom_site_fract_x
  _atom_site_fract_y
  _atom_site_fract_z
  _atom_site_thermal_displace_type
  _atom_site_B_iso_or_equiv
  _atom_site_type_symbol
  Ca1      1.0000 0.67806  0.27116  0.63255  Biso   1.000  Ca
  Ca2      1.0000 0.17806  0.72884  0.36745  Biso   1.000  Ca
  Ca3      1.0000 0.82194  0.22884  0.13255  Biso   1.000  Ca
  Ca4      1.0000 0.32194  0.77116  0.86745  Biso   1.000  Ca
  Cu1      1.0000 0.50148  0.99953  0.25461  Biso   1.000  Cu
  Cu2      1.0000 0.00148  0.00047  0.74539  Biso   1.000  Cu
  Cu3      1.0000 0.99852  0.50047  0.75461  Biso   1.000  Cu
  Cu4      1.0000 0.49852  0.49953  0.24539  Biso   1.000  Cu
  As1      1.0000 0.66511  0.73387  0.88144  Biso   1.000  As
  As2      1.0000 0.16511  0.26613  0.11856  Biso   1.000  As
  As3      1.0000 0.83489  0.76613  0.38144  Biso   1.000  As
  As4      1.0000 0.33489  0.23387  0.61856  Biso   1.000  As
  O1       1.0000 0.54549  0.75427  0.06380  Biso   1.000  O 
  O2       1.0000 0.04549  0.24573  0.93620  Biso   1.000  O 
  O3       1.0000 0.95451  0.74573  0.56380  Biso   1.000  O 
  O4       1.0000 0.45451  0.25427  0.43620  Biso   1.000  O 
  O5       1.0000 0.55405  0.65911  0.70837  Biso   1.000  O 
  O6       1.0000 0.05405  0.34089  0.29163  Biso   1.000  O 
  O7       1.0000 0.94595  0.84089  0.20837  Biso   1.000  O 
  O8       1.0000 0.44595  0.15911  0.79163  Biso   1.000  O 
  O9       1.0000 0.77655  0.50315  0.89886  Biso   1.000  O 
  O10      1.0000 0.27655  0.49685  0.10114  Biso   1.000  O 
  O11      1.0000 0.72345  0.99685  0.39886  Biso   1.000  O 
  O12      1.0000 0.22345  0.00315  0.60114  Biso   1.000  O 
  O13      1.0000 0.75327  0.98785  0.86090  Biso   1.000  O 
  O14      1.0000 0.25327  0.01215  0.13910  Biso   1.000  O 
  O15      1.0000 0.74673  0.51215  0.36090  Biso   1.000  O 
  O16      1.0000 0.24673  0.48785  0.63910  Biso   1.000  O 
  O17      1.0000 0.43125  0.74684  0.38873  Biso   1.000  O 
  O18      1.0000 0.93125  0.25316  0.61127  Biso   1.000  O 
  O19      1.0000 0.06875  0.75316  0.88873  Biso   1.000  O 
  O20      1.0000 0.56875  0.24684  0.11127  Biso   1.000  O 
  H1       1.0000 0.47971  0.73622  0.50726  Biso   1.000  H 
  H2       1.0000 0.97971  0.26378  0.49274  Biso   1.000  H 
  H3       1.0000 0.02029  0.76378  0.00726  Biso   1.000  H 
  H4       1.0000 0.52029  0.23622  0.99274  Biso   1.000  H 
