data_image0
_cell_length_a       3.83729
_cell_length_b       5.48801
_cell_length_c       11.3861
_cell_angle_alpha    90
_cell_angle_beta     90
_cell_angle_gamma    90

_symmetry_space_group_name_H-M    "P 1"
_symmetry_int_tables_number       1

loop_
  _symmetry_equiv_pos_as_xyz
  'x, y, z'

loop_
  _atom_site_label
  _atom_site_occupancy
  _atom_site_fract_x
  _atom_site_fract_y
  _atom_site_fract_z
  _atom_site_thermal_displace_type
  _atom_site_B_iso_or_equiv
  _atom_site_type_symbol
  Cu1      1.0000 0.25000  0.44096  0.67592  Biso   1.000  Cu
  Cu2      1.0000 0.25000  0.05904  0.17592  Biso   1.000  Cu
  Cu3      1.0000 0.75000  0.55904  0.32408  Biso   1.000  Cu
  Cu4      1.0000 0.75000  0.94096  0.82408  Biso   1.000  Cu
  As1      1.0000 0.25000  0.15017  0.51398  Biso   1.000  As
  As2      1.0000 0.25000  0.34983  0.01398  Biso   1.000  As
  As3      1.0000 0.75000  0.84983  0.48602  Biso   1.000  As
  As4      1.0000 0.75000  0.65017  0.98602  Biso   1.000  As
  S1       1.0000 0.75000  0.67360  0.66763  Biso   1.000  S 
  S2       1.0000 0.75000  0.82640  0.16763  Biso   1.000  S 
  S3       1.0000 0.25000  0.32640  0.33237  Biso   1.000  S 
  S4       1.0000 0.25000  0.17360  0.83237  Biso   1.000  S 
