data_image0
_cell_length_a       6.70908
_cell_length_b       6.71239
_cell_length_c       9.52729
_cell_angle_alpha    90
_cell_angle_beta     90
_cell_angle_gamma    90

_symmetry_space_group_name_H-M    "P 1"
_symmetry_int_tables_number       1

loop_
  _symmetry_equiv_pos_as_xyz
  'x, y, z'

loop_
  _atom_site_label
  _atom_site_occupancy
  _atom_site_fract_x
  _atom_site_fract_y
  _atom_site_fract_z
  _atom_site_thermal_displace_type
  _atom_site_B_iso_or_equiv
  _atom_site_type_symbol
  As1      1.0000 0.51305  0.50118  0.25000  Biso   1.000  As
  As2      1.0000 0.01305  0.99882  0.25000  Biso   1.000  As
  As3      1.0000 0.48695  0.49882  0.75000  Biso   1.000  As
  As4      1.0000 0.98695  0.00118  0.75000  Biso   1.000  As
  Ca1      1.0000 0.99526  0.46623  0.25000  Biso   1.000  Ca
  Ca2      1.0000 0.49526  0.03377  0.25000  Biso   1.000  Ca
  Ca3      1.0000 0.00474  0.53377  0.75000  Biso   1.000  Ca
  Ca4      1.0000 0.50474  0.96623  0.75000  Biso   1.000  Ca
  Ca5      1.0000 0.78141  0.78117  0.01717  Biso   1.000  Ca
  Ca6      1.0000 0.28141  0.71883  0.48283  Biso   1.000  Ca
  Ca7      1.0000 0.21859  0.21883  0.51717  Biso   1.000  Ca
  Ca8      1.0000 0.71859  0.28117  0.98283  Biso   1.000  Ca
  Ca9      1.0000 0.21859  0.21883  0.98283  Biso   1.000  Ca
  Ca10     1.0000 0.71859  0.28117  0.51717  Biso   1.000  Ca
  Ca11     1.0000 0.78141  0.78117  0.48283  Biso   1.000  Ca
  Ca12     1.0000 0.28141  0.71883  0.01717  Biso   1.000  Ca
  N1       1.0000 0.50000  0.00000  0.00000  Biso   1.000  N 
  N2       1.0000 0.00000  0.50000  0.50000  Biso   1.000  N 
  N3       1.0000 0.50000  0.00000  0.50000  Biso   1.000  N 
  N4       1.0000 0.00000  0.50000  0.00000  Biso   1.000  N 
