data_image0
_cell_length_a       9.52216
_cell_length_b       9.52216
_cell_length_c       11.9559
_cell_angle_alpha    90
_cell_angle_beta     90
_cell_angle_gamma    113.014

_symmetry_space_group_name_H-M    "P 1"
_symmetry_int_tables_number       1

loop_
  _symmetry_equiv_pos_as_xyz
  'x, y, z'

loop_
  _atom_site_label
  _atom_site_occupancy
  _atom_site_fract_x
  _atom_site_fract_y
  _atom_site_fract_z
  _atom_site_thermal_displace_type
  _atom_site_B_iso_or_equiv
  _atom_site_type_symbol
  Ta1      1.0000 0.20871  0.79129  0.50383  Biso   1.000  Ta
  Ta2      1.0000 0.79129  0.20871  0.00383  Biso   1.000  Ta
  Cl1      1.0000 0.33369  0.66631  0.39753  Biso   1.000  Cl
  Cl2      1.0000 0.66631  0.33369  0.89753  Biso   1.000  Cl
  Cl3      1.0000 0.08773  0.91227  0.61783  Biso   1.000  Cl
  Cl4      1.0000 0.91227  0.08773  0.11783  Biso   1.000  Cl
  Cl5      1.0000 0.30999  0.00798  0.38896  Biso   1.000  Cl
  Cl6      1.0000 0.99202  0.69001  0.38896  Biso   1.000  Cl
  Cl7      1.0000 0.69001  0.99202  0.88896  Biso   1.000  Cl
  Cl8      1.0000 0.00798  0.30999  0.88896  Biso   1.000  Cl
  Cl9      1.0000 0.42873  0.89143  0.62251  Biso   1.000  Cl
  Cl10     1.0000 0.10857  0.57127  0.62251  Biso   1.000  Cl
  Cl11     1.0000 0.57127  0.10857  0.12251  Biso   1.000  Cl
  Cl12     1.0000 0.89143  0.42873  0.12251  Biso   1.000  Cl
  Cl13     1.0000 0.76294  0.93361  0.40958  Biso   1.000  Cl
  Cl14     1.0000 0.06639  0.23706  0.40958  Biso   1.000  Cl
  Cl15     1.0000 0.23706  0.06639  0.90958  Biso   1.000  Cl
  Cl16     1.0000 0.93361  0.76294  0.90958  Biso   1.000  Cl
  Cl17     1.0000 0.74060  0.25940  0.41977  Biso   1.000  Cl
  Cl18     1.0000 0.25940  0.74060  0.91977  Biso   1.000  Cl
  Cl19     1.0000 0.86211  0.13789  0.63128  Biso   1.000  Cl
  Cl20     1.0000 0.13789  0.86211  0.13128  Biso   1.000  Cl
  Cl21     1.0000 0.55568  0.44432  0.33361  Biso   1.000  Cl
  Cl22     1.0000 0.44432  0.55568  0.83361  Biso   1.000  Cl
  Cl23     1.0000 0.37865  0.30155  0.62653  Biso   1.000  Cl
  Cl24     1.0000 0.69845  0.62135  0.62653  Biso   1.000  Cl
  Cl25     1.0000 0.62135  0.69845  0.12653  Biso   1.000  Cl
  Cl26     1.0000 0.30155  0.37865  0.12653  Biso   1.000  Cl
  As1      1.0000 0.44823  0.55177  0.64700  Biso   1.000  As
  As2      1.0000 0.55177  0.44823  0.14700  Biso   1.000  As
  P1       1.0000 0.85827  0.14173  0.46771  Biso   1.000  P 
  P2       1.0000 0.14173  0.85827  0.96771  Biso   1.000  P 
