data_image0
_cell_length_a       4.95252
_cell_length_b       6.06334
_cell_length_c       10.4483
_cell_angle_alpha    90
_cell_angle_beta     90
_cell_angle_gamma    90

_symmetry_space_group_name_H-M    "P 1"
_symmetry_int_tables_number       1

loop_
  _symmetry_equiv_pos_as_xyz
  'x, y, z'

loop_
  _atom_site_label
  _atom_site_occupancy
  _atom_site_fract_x
  _atom_site_fract_y
  _atom_site_fract_z
  _atom_site_thermal_displace_type
  _atom_site_B_iso_or_equiv
  _atom_site_type_symbol
  Li1      1.0000 0.25000  0.75000  0.50000  Biso   1.000  Li
  Li2      1.0000 0.75000  0.25000  0.00000  Biso   1.000  Li
  Li3      1.0000 0.25000  0.25000  0.50000  Biso   1.000  Li
  Li4      1.0000 0.75000  0.75000  0.00000  Biso   1.000  Li
  Co1      1.0000 0.25503  0.00000  0.22787  Biso   1.000  Co
  Co2      1.0000 0.74497  0.00000  0.72787  Biso   1.000  Co
  Co3      1.0000 0.24497  0.50000  0.77213  Biso   1.000  Co
  Co4      1.0000 0.75503  0.50000  0.27213  Biso   1.000  Co
  As1      1.0000 0.81761  0.00000  0.40730  Biso   1.000  As
  As2      1.0000 0.18239  0.00000  0.90730  Biso   1.000  As
  As3      1.0000 0.68239  0.50000  0.59270  Biso   1.000  As
  As4      1.0000 0.31761  0.50000  0.09270  Biso   1.000  As
  O1       1.0000 0.47187  0.00000  0.40385  Biso   1.000  O 
  O2       1.0000 0.52813  0.00000  0.90385  Biso   1.000  O 
  O3       1.0000 0.02813  0.50000  0.59615  Biso   1.000  O 
  O4       1.0000 0.97187  0.50000  0.09615  Biso   1.000  O 
  O5       1.0000 0.04244  0.00000  0.05923  Biso   1.000  O 
  O6       1.0000 0.95756  0.00000  0.55923  Biso   1.000  O 
  O7       1.0000 0.45756  0.50000  0.94077  Biso   1.000  O 
  O8       1.0000 0.54244  0.50000  0.44077  Biso   1.000  O 
  O9       1.0000 0.97956  0.77908  0.33295  Biso   1.000  O 
  O10      1.0000 0.02044  0.22092  0.83295  Biso   1.000  O 
  O11      1.0000 0.52044  0.27908  0.66705  Biso   1.000  O 
  O12      1.0000 0.47956  0.72092  0.16705  Biso   1.000  O 
  O13      1.0000 0.52044  0.72092  0.66705  Biso   1.000  O 
  O14      1.0000 0.47956  0.27908  0.16705  Biso   1.000  O 
  O15      1.0000 0.97956  0.22092  0.33295  Biso   1.000  O 
  O16      1.0000 0.02044  0.77908  0.83295  Biso   1.000  O 
