data_image0
_cell_length_a       10.3947
_cell_length_b       10.3947
_cell_length_c       10.2422
_cell_angle_alpha    83.7909
_cell_angle_beta     83.7909
_cell_angle_gamma    84.1314

_symmetry_space_group_name_H-M    "P 1"
_symmetry_int_tables_number       1

loop_
  _symmetry_equiv_pos_as_xyz
  'x, y, z'

loop_
  _atom_site_label
  _atom_site_occupancy
  _atom_site_fract_x
  _atom_site_fract_y
  _atom_site_fract_z
  _atom_site_thermal_displace_type
  _atom_site_B_iso_or_equiv
  _atom_site_type_symbol
  Cs1      1.0000 0.18449  0.04917  0.10813  Biso   1.000  Cs
  Cs2      1.0000 0.04917  0.18449  0.60813  Biso   1.000  Cs
  Cs3      1.0000 0.64450  0.79738  0.34213  Biso   1.000  Cs
  Cs4      1.0000 0.79738  0.64450  0.84213  Biso   1.000  Cs
  Cs5      1.0000 0.44493  0.28472  0.43541  Biso   1.000  Cs
  Cs6      1.0000 0.28472  0.44493  0.93541  Biso   1.000  Cs
  Nb1      1.0000 0.79196  0.19268  0.01788  Biso   1.000  Nb
  Nb2      1.0000 0.19268  0.79196  0.51788  Biso   1.000  Nb
  Nb3      1.0000 0.54481  0.07876  0.82794  Biso   1.000  Nb
  Nb4      1.0000 0.07876  0.54481  0.32794  Biso   1.000  Nb
  As1      1.0000 0.73734  0.41295  0.27304  Biso   1.000  As
  As2      1.0000 0.41295  0.73734  0.77304  Biso   1.000  As
  Se1      1.0000 0.53095  0.11060  0.08193  Biso   1.000  Se
  Se2      1.0000 0.11060  0.53095  0.58193  Biso   1.000  Se
  Se3      1.0000 0.30248  0.65603  0.30890  Biso   1.000  Se
  Se4      1.0000 0.65603  0.30248  0.80890  Biso   1.000  Se
  Se5      1.0000 0.01175  0.82024  0.35680  Biso   1.000  Se
  Se6      1.0000 0.82024  0.01175  0.85680  Biso   1.000  Se
  Se7      1.0000 0.89002  0.56460  0.17047  Biso   1.000  Se
  Se8      1.0000 0.56460  0.89002  0.67047  Biso   1.000  Se
  Se9      1.0000 0.39366  0.61491  0.58219  Biso   1.000  Se
  Se10     1.0000 0.61491  0.39366  0.08219  Biso   1.000  Se
  Se11     1.0000 0.51262  0.89547  0.01928  Biso   1.000  Se
  Se12     1.0000 0.89547  0.51262  0.51928  Biso   1.000  Se
  Se13     1.0000 0.18825  0.81793  0.77600  Biso   1.000  Se
  Se14     1.0000 0.81793  0.18825  0.27600  Biso   1.000  Se
  Se15     1.0000 0.87181  0.94930  0.07702  Biso   1.000  Se
  Se16     1.0000 0.94930  0.87181  0.57702  Biso   1.000  Se
  Se17     1.0000 0.16931  0.70260  0.12773  Biso   1.000  Se
  Se18     1.0000 0.70260  0.16931  0.62773  Biso   1.000  Se
  Se19     1.0000 0.30663  0.97604  0.44242  Biso   1.000  Se
  Se20     1.0000 0.97604  0.30663  0.94242  Biso   1.000  Se
  Se21     1.0000 0.33391  0.16302  0.77529  Biso   1.000  Se
  Se22     1.0000 0.16302  0.33391  0.27529  Biso   1.000  Se
