data_image0
_cell_length_a       3.83596
_cell_length_b       5.49096
_cell_length_c       11.382
_cell_angle_alpha    90
_cell_angle_beta     90
_cell_angle_gamma    90

_symmetry_space_group_name_H-M    "P 1"
_symmetry_int_tables_number       1

loop_
  _symmetry_equiv_pos_as_xyz
  'x, y, z'

loop_
  _atom_site_label
  _atom_site_occupancy
  _atom_site_fract_x
  _atom_site_fract_y
  _atom_site_fract_z
  _atom_site_thermal_displace_type
  _atom_site_B_iso_or_equiv
  _atom_site_type_symbol
  Cu1      1.0000 0.22117  0.05886  0.82402  Biso   1.000  Cu
  Cu2      1.0000 0.72117  0.94114  0.17598  Biso   1.000  Cu
  Cu3      1.0000 0.72117  0.55886  0.67598  Biso   1.000  Cu
  Cu4      1.0000 0.22117  0.44114  0.32402  Biso   1.000  Cu
  As1      1.0000 0.21940  0.34983  0.98608  Biso   1.000  As
  As2      1.0000 0.71940  0.65017  0.01392  Biso   1.000  As
  As3      1.0000 0.71940  0.84983  0.51392  Biso   1.000  As
  As4      1.0000 0.21940  0.15017  0.48608  Biso   1.000  As
  S1       1.0000 0.22082  0.32628  0.66770  Biso   1.000  S 
  S2       1.0000 0.72082  0.67372  0.33230  Biso   1.000  S 
  S3       1.0000 0.72082  0.82628  0.83230  Biso   1.000  S 
  S4       1.0000 0.22082  0.17372  0.16770  Biso   1.000  S 
