data_image0
_cell_length_a       5.76773
_cell_length_b       5.85412
_cell_length_c       11.5176
_cell_angle_alpha    90
_cell_angle_beta     90
_cell_angle_gamma    90

_symmetry_space_group_name_H-M    "P 1"
_symmetry_int_tables_number       1

loop_
  _symmetry_equiv_pos_as_xyz
  'x, y, z'

loop_
  _atom_site_label
  _atom_site_occupancy
  _atom_site_fract_x
  _atom_site_fract_y
  _atom_site_fract_z
  _atom_site_thermal_displace_type
  _atom_site_B_iso_or_equiv
  _atom_site_type_symbol
  Co1      1.0000 0.50237  0.17491  0.12712  Biso   1.000  Co
  Co2      1.0000 0.00237  0.32509  0.87288  Biso   1.000  Co
  Co3      1.0000 0.49763  0.67491  0.37288  Biso   1.000  Co
  Co4      1.0000 0.99763  0.82509  0.62712  Biso   1.000  Co
  Co5      1.0000 0.49763  0.82509  0.87288  Biso   1.000  Co
  Co6      1.0000 0.99763  0.67491  0.12712  Biso   1.000  Co
  Co7      1.0000 0.50237  0.32509  0.62712  Biso   1.000  Co
  Co8      1.0000 0.00237  0.17491  0.37288  Biso   1.000  Co
  Se1      1.0000 0.62117  0.05792  0.32056  Biso   1.000  Se
  Se2      1.0000 0.12117  0.44208  0.67944  Biso   1.000  Se
  Se3      1.0000 0.37883  0.55792  0.17944  Biso   1.000  Se
  Se4      1.0000 0.87883  0.94208  0.82056  Biso   1.000  Se
  Se5      1.0000 0.37883  0.94208  0.67944  Biso   1.000  Se
  Se6      1.0000 0.87883  0.55792  0.32056  Biso   1.000  Se
  Se7      1.0000 0.62117  0.44208  0.82056  Biso   1.000  Se
  Se8      1.0000 0.12117  0.05792  0.17944  Biso   1.000  Se
  As1      1.0000 0.86769  0.31460  0.06530  Biso   1.000  As
  As2      1.0000 0.36769  0.18540  0.93470  Biso   1.000  As
  As3      1.0000 0.13231  0.81460  0.43470  Biso   1.000  As
  As4      1.0000 0.63231  0.68540  0.56530  Biso   1.000  As
  As5      1.0000 0.13231  0.68540  0.93470  Biso   1.000  As
  As6      1.0000 0.63231  0.81460  0.06530  Biso   1.000  As
  As7      1.0000 0.86769  0.18540  0.56530  Biso   1.000  As
  As8      1.0000 0.36769  0.31460  0.43470  Biso   1.000  As
