data_image0
_cell_length_a       8.2774
_cell_length_b       8.2774
_cell_length_c       9.13052
_cell_angle_alpha    82.4955
_cell_angle_beta     82.4955
_cell_angle_gamma    61.3866

_symmetry_space_group_name_H-M    "P 1"
_symmetry_int_tables_number       1

loop_
  _symmetry_equiv_pos_as_xyz
  'x, y, z'

loop_
  _atom_site_label
  _atom_site_occupancy
  _atom_site_fract_x
  _atom_site_fract_y
  _atom_site_fract_z
  _atom_site_thermal_displace_type
  _atom_site_B_iso_or_equiv
  _atom_site_type_symbol
  Hg1      1.0000 0.78236  0.78236  0.48538  Biso   1.000  Hg
  Hg2      1.0000 0.21764  0.21764  0.51462  Biso   1.000  Hg
  Hg3      1.0000 0.27636  0.27636  0.04782  Biso   1.000  Hg
  Hg4      1.0000 0.72364  0.72364  0.95218  Biso   1.000  Hg
  Hg5      1.0000 0.26754  0.77532  0.24196  Biso   1.000  Hg
  Hg6      1.0000 0.77532  0.26754  0.24196  Biso   1.000  Hg
  Hg7      1.0000 0.73246  0.22468  0.75804  Biso   1.000  Hg
  Hg8      1.0000 0.22468  0.73246  0.75804  Biso   1.000  Hg
  As1      1.0000 0.95969  0.95969  0.38985  Biso   1.000  As
  As2      1.0000 0.04031  0.04031  0.61015  Biso   1.000  As
  As3      1.0000 0.55511  0.55511  0.09019  Biso   1.000  As
  As4      1.0000 0.44489  0.44489  0.90981  Biso   1.000  As
  Cl1      1.0000 0.38994  0.38994  0.47509  Biso   1.000  Cl
  Cl2      1.0000 0.61006  0.61006  0.52491  Biso   1.000  Cl
  Cl3      1.0000 0.88929  0.88929  0.01100  Biso   1.000  Cl
  Cl4      1.0000 0.11071  0.11071  0.98900  Biso   1.000  Cl
  Cl5      1.0000 0.45036  0.00505  0.26157  Biso   1.000  Cl
  Cl6      1.0000 0.00505  0.45036  0.26157  Biso   1.000  Cl
  Cl7      1.0000 0.54964  0.99495  0.73843  Biso   1.000  Cl
  Cl8      1.0000 0.99495  0.54964  0.73843  Biso   1.000  Cl
