data_image0
_cell_length_a       4.34076
_cell_length_b       7.23175
_cell_length_c       7.88653
_cell_angle_alpha    90
_cell_angle_beta     90
_cell_angle_gamma    90

_symmetry_space_group_name_H-M    "P 1"
_symmetry_int_tables_number       1

loop_
  _symmetry_equiv_pos_as_xyz
  'x, y, z'

loop_
  _atom_site_label
  _atom_site_occupancy
  _atom_site_fract_x
  _atom_site_fract_y
  _atom_site_fract_z
  _atom_site_thermal_displace_type
  _atom_site_B_iso_or_equiv
  _atom_site_type_symbol
  Ca1      1.0000 0.25000  0.51405  0.80219  Biso   1.000  Ca
  Ca2      1.0000 0.25000  0.01405  0.69781  Biso   1.000  Ca
  Ca3      1.0000 0.75000  0.48595  0.19781  Biso   1.000  Ca
  Ca4      1.0000 0.75000  0.98595  0.30219  Biso   1.000  Ca
  As1      1.0000 0.25000  0.76862  0.10233  Biso   1.000  As
  As2      1.0000 0.25000  0.26862  0.39767  Biso   1.000  As
  As3      1.0000 0.75000  0.23138  0.89767  Biso   1.000  As
  As4      1.0000 0.75000  0.73138  0.60233  Biso   1.000  As
  Li1      1.0000 0.25000  0.64904  0.43132  Biso   1.000  Li
  Li2      1.0000 0.25000  0.14904  0.06868  Biso   1.000  Li
  Li3      1.0000 0.75000  0.35096  0.56868  Biso   1.000  Li
  Li4      1.0000 0.75000  0.85096  0.93132  Biso   1.000  Li
