data_image0
_cell_length_a       5.17414
_cell_length_b       5.17414
_cell_length_c       7.97346
_cell_angle_alpha    90
_cell_angle_beta     90
_cell_angle_gamma    90

_symmetry_space_group_name_H-M    "P 1"
_symmetry_int_tables_number       1

loop_
  _symmetry_equiv_pos_as_xyz
  'x, y, z'

loop_
  _atom_site_label
  _atom_site_occupancy
  _atom_site_fract_x
  _atom_site_fract_y
  _atom_site_fract_z
  _atom_site_thermal_displace_type
  _atom_site_B_iso_or_equiv
  _atom_site_type_symbol
  Rb1      1.0000 0.00000  0.50000  0.37310  Biso   1.000  Rb
  Rb2      1.0000 0.50000  0.00000  0.62690  Biso   1.000  Rb
  As1      1.0000 0.00000  0.50000  0.81536  Biso   1.000  As
  As2      1.0000 0.50000  0.00000  0.18464  Biso   1.000  As
  Ca1      1.0000 0.00000  0.00000  0.00000  Biso   1.000  Ca
  Ca2      1.0000 0.50000  0.50000  0.00000  Biso   1.000  Ca
