data_image0
_cell_length_a       5.62625
_cell_length_b       5.62625
_cell_length_c       4.90118
_cell_angle_alpha    107.074
_cell_angle_beta     107.074
_cell_angle_gamma    87.8603

_symmetry_space_group_name_H-M    "P 1"
_symmetry_int_tables_number       1

loop_
  _symmetry_equiv_pos_as_xyz
  'x, y, z'

loop_
  _atom_site_label
  _atom_site_occupancy
  _atom_site_fract_x
  _atom_site_fract_y
  _atom_site_fract_z
  _atom_site_thermal_displace_type
  _atom_site_B_iso_or_equiv
  _atom_site_type_symbol
  As1      1.0000 0.00000  0.00000  0.00000  Biso   1.000  As
  F1       1.0000 0.78647  0.78647  0.02546  Biso   1.000  F 
  F2       1.0000 0.21353  0.21353  0.97454  Biso   1.000  F 
  F3       1.0000 0.07639  0.75587  0.72179  Biso   1.000  F 
  F4       1.0000 0.24413  0.92361  0.27821  Biso   1.000  F 
  F5       1.0000 0.92361  0.24413  0.27821  Biso   1.000  F 
  F6       1.0000 0.75587  0.07639  0.72179  Biso   1.000  F 
  N1       1.0000 0.50000  0.50000  0.50000  Biso   1.000  N 
  O1       1.0000 0.41428  0.41428  0.63551  Biso   1.000  O 
  O2       1.0000 0.58572  0.58572  0.36449  Biso   1.000  O 
