data_image0
_cell_length_a       4.95221
_cell_length_b       6.13498
_cell_length_c       10.713
_cell_angle_alpha    90
_cell_angle_beta     90
_cell_angle_gamma    90

_symmetry_space_group_name_H-M    "P 1"
_symmetry_int_tables_number       1

loop_
  _symmetry_equiv_pos_as_xyz
  'x, y, z'

loop_
  _atom_site_label
  _atom_site_occupancy
  _atom_site_fract_x
  _atom_site_fract_y
  _atom_site_fract_z
  _atom_site_thermal_displace_type
  _atom_site_B_iso_or_equiv
  _atom_site_type_symbol
  Li1      1.0000 0.75000  0.75000  0.00000  Biso   1.000  Li
  Li2      1.0000 0.25000  0.75000  0.50000  Biso   1.000  Li
  Li3      1.0000 0.75000  0.25000  0.00000  Biso   1.000  Li
  Li4      1.0000 0.25000  0.25000  0.50000  Biso   1.000  Li
  Fe1      1.0000 0.76165  0.50000  0.27689  Biso   1.000  Fe
  Fe2      1.0000 0.23835  0.50000  0.77689  Biso   1.000  Fe
  Fe3      1.0000 0.26165  0.00000  0.22311  Biso   1.000  Fe
  Fe4      1.0000 0.73835  0.00000  0.72311  Biso   1.000  Fe
  As1      1.0000 0.31430  0.50000  0.09325  Biso   1.000  As
  As2      1.0000 0.68570  0.50000  0.59325  Biso   1.000  As
  As3      1.0000 0.81430  0.00000  0.40675  Biso   1.000  As
  As4      1.0000 0.18570  0.00000  0.90675  Biso   1.000  As
  O1       1.0000 0.96899  0.50000  0.09331  Biso   1.000  O 
  O2       1.0000 0.03101  0.50000  0.59331  Biso   1.000  O 
  O3       1.0000 0.46899  0.00000  0.40669  Biso   1.000  O 
  O4       1.0000 0.53101  0.00000  0.90669  Biso   1.000  O 
  O5       1.0000 0.53757  0.50000  0.44746  Biso   1.000  O 
  O6       1.0000 0.46243  0.50000  0.94746  Biso   1.000  O 
  O7       1.0000 0.03757  0.00000  0.05254  Biso   1.000  O 
  O8       1.0000 0.96243  0.00000  0.55254  Biso   1.000  O 
  O9       1.0000 0.46652  0.71787  0.17024  Biso   1.000  O 
  O10      1.0000 0.53348  0.71787  0.67024  Biso   1.000  O 
  O11      1.0000 0.46652  0.28213  0.17024  Biso   1.000  O 
  O12      1.0000 0.96652  0.21787  0.32976  Biso   1.000  O 
  O13      1.0000 0.03348  0.78213  0.82976  Biso   1.000  O 
  O14      1.0000 0.96652  0.78213  0.32976  Biso   1.000  O 
  O15      1.0000 0.03348  0.21787  0.82976  Biso   1.000  O 
  O16      1.0000 0.53348  0.28213  0.67024  Biso   1.000  O 
