data_image0
_cell_length_a       5.48875
_cell_length_b       7.33398
_cell_length_c       12.079
_cell_angle_alpha    87.4962
_cell_angle_beta     83.9957
_cell_angle_gamma    86.8171

_symmetry_space_group_name_H-M    "P 1"
_symmetry_int_tables_number       1

loop_
  _symmetry_equiv_pos_as_xyz
  'x, y, z'

loop_
  _atom_site_label
  _atom_site_occupancy
  _atom_site_fract_x
  _atom_site_fract_y
  _atom_site_fract_z
  _atom_site_thermal_displace_type
  _atom_site_B_iso_or_equiv
  _atom_site_type_symbol
  Xe1      1.0000 0.61563  0.24293  0.86950  Biso   1.000  Xe
  Xe2      1.0000 0.38437  0.75707  0.13050  Biso   1.000  Xe
  As1      1.0000 0.88171  0.25554  0.15977  Biso   1.000  As
  As2      1.0000 0.11829  0.74446  0.84023  Biso   1.000  As
  S1       1.0000 0.72232  0.24603  0.59374  Biso   1.000  S 
  S2       1.0000 0.27768  0.75397  0.40626  Biso   1.000  S 
  F1       1.0000 0.47879  0.29252  0.53297  Biso   1.000  F 
  F2       1.0000 0.52121  0.70748  0.46703  Biso   1.000  F 
  F3       1.0000 0.73775  0.04308  0.54542  Biso   1.000  F 
  F4       1.0000 0.26225  0.95692  0.45458  Biso   1.000  F 
  F5       1.0000 0.70347  0.44685  0.64193  Biso   1.000  F 
  F6       1.0000 0.29653  0.55315  0.35807  Biso   1.000  F 
  F7       1.0000 0.97300  0.19955  0.65101  Biso   1.000  F 
  F8       1.0000 0.02700  0.80045  0.34899  Biso   1.000  F 
  F9       1.0000 0.89377  0.48298  0.19878  Biso   1.000  F 
  F10      1.0000 0.10623  0.51702  0.80122  Biso   1.000  F 
  F11      1.0000 0.88273  0.31764  0.48465  Biso   1.000  F 
  F12      1.0000 0.11727  0.68236  0.51535  Biso   1.000  F 
  F13      1.0000 0.64760  0.33469  0.06749  Biso   1.000  F 
  F14      1.0000 0.35240  0.66531  0.93251  Biso   1.000  F 
  F15      1.0000 0.10759  0.17733  0.24634  Biso   1.000  F 
  F16      1.0000 0.89241  0.82267  0.75366  Biso   1.000  F 
  F17      1.0000 0.64222  0.22019  0.26690  Biso   1.000  F 
  F18      1.0000 0.35778  0.77981  0.73310  Biso   1.000  F 
  F19      1.0000 0.10618  0.29218  0.04664  Biso   1.000  F 
  F20      1.0000 0.89382  0.70782  0.95336  Biso   1.000  F 
  F21      1.0000 0.85039  0.03103  0.11575  Biso   1.000  F 
  F22      1.0000 0.14961  0.96897  0.88425  Biso   1.000  F 
  N1       1.0000 0.52656  0.16316  0.70990  Biso   1.000  N 
  N2       1.0000 0.47344  0.83684  0.29010  Biso   1.000  N 
  H1       1.0000 0.56808  0.02301  0.71639  Biso   1.000  H 
  H2       1.0000 0.43192  0.97699  0.28361  Biso   1.000  H 
