data_image0
_cell_length_a       13.7141
_cell_length_b       7.02834
_cell_length_c       6.98103
_cell_angle_alpha    89.3518
_cell_angle_beta     90
_cell_angle_gamma    90

_symmetry_space_group_name_H-M    "P 1"
_symmetry_int_tables_number       1

loop_
  _symmetry_equiv_pos_as_xyz
  'x, y, z'

loop_
  _atom_site_label
  _atom_site_occupancy
  _atom_site_fract_x
  _atom_site_fract_y
  _atom_site_fract_z
  _atom_site_thermal_displace_type
  _atom_site_B_iso_or_equiv
  _atom_site_type_symbol
  Xe1      1.0000 0.89687  0.69222  0.22563  Biso   1.000  Xe
  Xe2      1.0000 0.39687  0.30778  0.77437  Biso   1.000  Xe
  Xe3      1.0000 0.89715  0.18879  0.73106  Biso   1.000  Xe
  Xe4      1.0000 0.39715  0.81121  0.26894  Biso   1.000  Xe
  Xe5      1.0000 0.15295  0.72606  0.71186  Biso   1.000  Xe
  Xe6      1.0000 0.65295  0.27394  0.28814  Biso   1.000  Xe
  As1      1.0000 0.62965  0.79653  0.78740  Biso   1.000  As
  As2      1.0000 0.12965  0.20347  0.21260  Biso   1.000  As
  F1       1.0000 0.84133  0.57223  0.47800  Biso   1.000  F 
  F2       1.0000 0.34133  0.42777  0.52200  Biso   1.000  F 
  F3       1.0000 0.86329  0.44137  0.87064  Biso   1.000  F 
  F4       1.0000 0.36329  0.55863  0.12936  Biso   1.000  F 
  F5       1.0000 0.02103  0.58724  0.64943  Biso   1.000  F 
  F6       1.0000 0.52103  0.41276  0.35057  Biso   1.000  F 
  F7       1.0000 0.94854  0.80447  0.96827  Biso   1.000  F 
  F8       1.0000 0.44854  0.19553  0.03173  Biso   1.000  F 
  F9       1.0000 0.92910  0.93449  0.59194  Biso   1.000  F 
  F10      1.0000 0.42910  0.06551  0.40806  Biso   1.000  F 
  F11      1.0000 0.28313  0.85807  0.76784  Biso   1.000  F 
  F12      1.0000 0.78313  0.14193  0.23216  Biso   1.000  F 
  F13      1.0000 0.76171  0.79810  0.80523  Biso   1.000  F 
  F14      1.0000 0.26171  0.20190  0.19477  Biso   1.000  F 
  F15      1.0000 0.63990  0.80915  0.53500  Biso   1.000  F 
  F16      1.0000 0.13990  0.19085  0.46500  Biso   1.000  F 
  F17      1.0000 0.63239  0.54498  0.78001  Biso   1.000  F 
  F18      1.0000 0.13239  0.45502  0.21999  Biso   1.000  F 
  F19      1.0000 0.62445  0.78561  0.04102  Biso   1.000  F 
  F20      1.0000 0.12445  0.21439  0.95898  Biso   1.000  F 
  F21      1.0000 0.63209  0.04856  0.79575  Biso   1.000  F 
  F22      1.0000 0.13209  0.95144  0.20425  Biso   1.000  F 
  F23      1.0000 0.50103  0.79609  0.77308  Biso   1.000  F 
  F24      1.0000 0.00103  0.20391  0.22692  Biso   1.000  F 
  Li1      1.0000 0.88790  0.68639  0.72483  Biso   1.000  Li
  Li2      1.0000 0.38790  0.31361  0.27517  Biso   1.000  Li
