data_image0
_cell_length_a       10.03
_cell_length_b       7.36233
_cell_length_c       7.95487
_cell_angle_alpha    84.1163
_cell_angle_beta     90
_cell_angle_gamma    90

_symmetry_space_group_name_H-M    "P 1"
_symmetry_int_tables_number       1

loop_
  _symmetry_equiv_pos_as_xyz
  'x, y, z'

loop_
  _atom_site_label
  _atom_site_occupancy
  _atom_site_fract_x
  _atom_site_fract_y
  _atom_site_fract_z
  _atom_site_thermal_displace_type
  _atom_site_B_iso_or_equiv
  _atom_site_type_symbol
  Hg1      1.0000 0.23875  0.71460  0.62573  Biso   1.000  Hg
  Hg2      1.0000 0.73875  0.28540  0.87427  Biso   1.000  Hg
  Hg3      1.0000 0.76125  0.28540  0.37427  Biso   1.000  Hg
  Hg4      1.0000 0.26125  0.71460  0.12573  Biso   1.000  Hg
  As1      1.0000 0.93466  0.77958  0.29763  Biso   1.000  As
  As2      1.0000 0.43466  0.22042  0.20237  Biso   1.000  As
  As3      1.0000 0.06534  0.22042  0.70237  Biso   1.000  As
  As4      1.0000 0.56534  0.77958  0.79763  Biso   1.000  As
  F1       1.0000 0.79759  0.62968  0.35081  Biso   1.000  F 
  F2       1.0000 0.29759  0.37032  0.14919  Biso   1.000  F 
  F3       1.0000 0.20241  0.37032  0.64919  Biso   1.000  F 
  F4       1.0000 0.70241  0.62968  0.85081  Biso   1.000  F 
  F5       1.0000 0.86659  0.84760  0.10028  Biso   1.000  F 
  F6       1.0000 0.36659  0.15240  0.39972  Biso   1.000  F 
  F7       1.0000 0.13341  0.15240  0.89972  Biso   1.000  F 
  F8       1.0000 0.63341  0.84760  0.60028  Biso   1.000  F 
  F9       1.0000 0.00475  0.70874  0.50174  Biso   1.000  F 
  F10      1.0000 0.50475  0.29126  0.99826  Biso   1.000  F 
  F11      1.0000 0.99525  0.29126  0.49826  Biso   1.000  F 
  F12      1.0000 0.49525  0.70874  0.00174  Biso   1.000  F 
  F13      1.0000 0.07807  0.91972  0.25174  Biso   1.000  F 
  F14      1.0000 0.57807  0.08028  0.24826  Biso   1.000  F 
  F15      1.0000 0.92193  0.08028  0.74826  Biso   1.000  F 
  F16      1.0000 0.42193  0.91972  0.75174  Biso   1.000  F 
  F17      1.0000 0.85273  0.95954  0.38831  Biso   1.000  F 
  F18      1.0000 0.35273  0.04046  0.11169  Biso   1.000  F 
  F19      1.0000 0.14727  0.04046  0.61169  Biso   1.000  F 
  F20      1.0000 0.64727  0.95954  0.88831  Biso   1.000  F 
  F21      1.0000 0.02228  0.59600  0.21559  Biso   1.000  F 
  F22      1.0000 0.52228  0.40400  0.28441  Biso   1.000  F 
  F23      1.0000 0.97772  0.40400  0.78441  Biso   1.000  F 
  F24      1.0000 0.47772  0.59600  0.71559  Biso   1.000  F 
  F25      1.0000 0.32402  0.70694  0.38198  Biso   1.000  F 
  F26      1.0000 0.82402  0.29306  0.11802  Biso   1.000  F 
  F27      1.0000 0.67598  0.29306  0.61802  Biso   1.000  F 
  F28      1.0000 0.17598  0.70694  0.88198  Biso   1.000  F 
