data_image0
_cell_length_a       5.83344
_cell_length_b       5.83344
_cell_length_c       5.41408
_cell_angle_alpha    88.6326
_cell_angle_beta     88.6326
_cell_angle_gamma    69.7721

_symmetry_space_group_name_H-M    "P 1"
_symmetry_int_tables_number       1

loop_
  _symmetry_equiv_pos_as_xyz
  'x, y, z'

loop_
  _atom_site_label
  _atom_site_occupancy
  _atom_site_fract_x
  _atom_site_fract_y
  _atom_site_fract_z
  _atom_site_thermal_displace_type
  _atom_site_B_iso_or_equiv
  _atom_site_type_symbol
  S1       1.0000 0.35724  0.35724  0.61900  Biso   1.000  S 
  S2       1.0000 0.64276  0.64276  0.38100  Biso   1.000  S 
  N1       1.0000 0.50000  0.50000  0.50000  Biso   1.000  N 
  As1      1.0000 0.00000  0.00000  0.00000  Biso   1.000  As
  F1       1.0000 0.89164  0.89164  0.74022  Biso   1.000  F 
  F2       1.0000 0.10836  0.10836  0.25978  Biso   1.000  F 
  F3       1.0000 0.08124  0.70468  0.14112  Biso   1.000  F 
  F4       1.0000 0.70468  0.08124  0.14112  Biso   1.000  F 
  F5       1.0000 0.91876  0.29532  0.85888  Biso   1.000  F 
  F6       1.0000 0.29532  0.91876  0.85888  Biso   1.000  F 
