data_image0
_cell_length_a       18.4259
_cell_length_b       10.4824
_cell_length_c       8.37874
_cell_angle_alpha    52.2605
_cell_angle_beta     90
_cell_angle_gamma    90

_symmetry_space_group_name_H-M    "P 1"
_symmetry_int_tables_number       1

loop_
  _symmetry_equiv_pos_as_xyz
  'x, y, z'

loop_
  _atom_site_label
  _atom_site_occupancy
  _atom_site_fract_x
  _atom_site_fract_y
  _atom_site_fract_z
  _atom_site_thermal_displace_type
  _atom_site_B_iso_or_equiv
  _atom_site_type_symbol
  I1       1.0000 0.02370  0.25782  0.55276  Biso   1.000  I 
  I2       1.0000 0.97630  0.25782  0.05276  Biso   1.000  I 
  I3       1.0000 0.97630  0.74218  0.44724  Biso   1.000  I 
  I4       1.0000 0.02370  0.74218  0.94724  Biso   1.000  I 
  I5       1.0000 0.47630  0.75782  0.05276  Biso   1.000  I 
  I6       1.0000 0.47630  0.24218  0.44724  Biso   1.000  I 
  I7       1.0000 0.52370  0.24218  0.94724  Biso   1.000  I 
  I8       1.0000 0.52370  0.75782  0.55276  Biso   1.000  I 
  I9       1.0000 0.13816  0.41870  0.55045  Biso   1.000  I 
  I10      1.0000 0.86184  0.41870  0.05045  Biso   1.000  I 
  I11      1.0000 0.86184  0.58130  0.44955  Biso   1.000  I 
  I12      1.0000 0.13816  0.58130  0.94955  Biso   1.000  I 
  I13      1.0000 0.36184  0.91870  0.05045  Biso   1.000  I 
  I14      1.0000 0.36184  0.08130  0.44955  Biso   1.000  I 
  I15      1.0000 0.63816  0.08130  0.94955  Biso   1.000  I 
  I16      1.0000 0.63816  0.91870  0.55045  Biso   1.000  I 
  I17      1.0000 0.25000  0.25000  0.50000  Biso   1.000  I 
  I18      1.0000 0.75000  0.25000  0.00000  Biso   1.000  I 
  I19      1.0000 0.75000  0.75000  0.50000  Biso   1.000  I 
  I20      1.0000 0.25000  0.75000  0.00000  Biso   1.000  I 
  As1      1.0000 0.15731  1.00000  0.25000  Biso   1.000  As
  As2      1.0000 0.84269  1.00000  0.75000  Biso   1.000  As
  As3      1.0000 0.34269  0.50000  0.75000  Biso   1.000  As
  As4      1.0000 0.65731  0.50000  0.25000  Biso   1.000  As
  F1       1.0000 0.15580  0.80576  0.31293  Biso   1.000  F 
  F2       1.0000 0.84420  0.80576  0.81293  Biso   1.000  F 
  F3       1.0000 0.84420  0.19424  0.68707  Biso   1.000  F 
  F4       1.0000 0.15580  0.19424  0.18707  Biso   1.000  F 
  F5       1.0000 0.34420  0.30576  0.81293  Biso   1.000  F 
  F6       1.0000 0.34420  0.69424  0.68707  Biso   1.000  F 
  F7       1.0000 0.65580  0.69424  0.18707  Biso   1.000  F 
  F8       1.0000 0.65580  0.30576  0.31293  Biso   1.000  F 
  F9       1.0000 0.22504  0.93854  0.43500  Biso   1.000  F 
  F10      1.0000 0.77496  0.93854  0.93500  Biso   1.000  F 
  F11      1.0000 0.77496  0.06146  0.56500  Biso   1.000  F 
  F12      1.0000 0.22504  0.06146  0.06500  Biso   1.000  F 
  F13      1.0000 0.27496  0.43854  0.93500  Biso   1.000  F 
  F14      1.0000 0.27496  0.56146  0.56500  Biso   1.000  F 
  F15      1.0000 0.72504  0.56146  0.06500  Biso   1.000  F 
  F16      1.0000 0.72504  0.43854  0.43500  Biso   1.000  F 
  F17      1.0000 0.08796  0.93557  0.43530  Biso   1.000  F 
  F18      1.0000 0.91204  0.93557  0.93530  Biso   1.000  F 
  F19      1.0000 0.91204  0.06443  0.56470  Biso   1.000  F 
  F20      1.0000 0.08796  0.06443  0.06470  Biso   1.000  F 
  F21      1.0000 0.41204  0.43557  0.93530  Biso   1.000  F 
  F22      1.0000 0.41204  0.56443  0.56470  Biso   1.000  F 
  F23      1.0000 0.58796  0.56443  0.06470  Biso   1.000  F 
  F24      1.0000 0.58796  0.43557  0.43530  Biso   1.000  F 
