data_image0
_cell_length_a       10.4628
_cell_length_b       5.36142
_cell_length_c       11.0967
_cell_angle_alpha    83.9964
_cell_angle_beta     90
_cell_angle_gamma    90

_symmetry_space_group_name_H-M    "P 1"
_symmetry_int_tables_number       1

loop_
  _symmetry_equiv_pos_as_xyz
  'x, y, z'

loop_
  _atom_site_label
  _atom_site_occupancy
  _atom_site_fract_x
  _atom_site_fract_y
  _atom_site_fract_z
  _atom_site_thermal_displace_type
  _atom_site_B_iso_or_equiv
  _atom_site_type_symbol
  Kr1      1.0000 0.72411  0.53703  0.46804  Biso   1.000  Kr
  Kr2      1.0000 0.77589  0.53703  0.96804  Biso   1.000  Kr
  Kr3      1.0000 0.27589  0.46297  0.53196  Biso   1.000  Kr
  Kr4      1.0000 0.22411  0.46297  0.03196  Biso   1.000  Kr
  As1      1.0000 0.49149  0.90376  0.26765  Biso   1.000  As
  As2      1.0000 0.00851  0.90376  0.76765  Biso   1.000  As
  As3      1.0000 0.50851  0.09624  0.73235  Biso   1.000  As
  As4      1.0000 0.99149  0.09624  0.23235  Biso   1.000  As
  F1       1.0000 0.55184  0.71828  0.42433  Biso   1.000  F 
  F2       1.0000 0.94816  0.71828  0.92433  Biso   1.000  F 
  F3       1.0000 0.44816  0.28172  0.57567  Biso   1.000  F 
  F4       1.0000 0.05184  0.28172  0.07567  Biso   1.000  F 
  F5       1.0000 0.87274  0.36725  0.51636  Biso   1.000  F 
  F6       1.0000 0.62726  0.36725  0.01636  Biso   1.000  F 
  F7       1.0000 0.12726  0.63275  0.48364  Biso   1.000  F 
  F8       1.0000 0.37274  0.63275  0.98364  Biso   1.000  F 
  F9       1.0000 0.61796  0.75890  0.19905  Biso   1.000  F 
  F10      1.0000 0.88204  0.75890  0.69905  Biso   1.000  F 
  F11      1.0000 0.38204  0.24110  0.80095  Biso   1.000  F 
  F12      1.0000 0.11796  0.24110  0.30095  Biso   1.000  F 
  F13      1.0000 0.43264  0.06664  0.13595  Biso   1.000  F 
  F14      1.0000 0.06736  0.06664  0.63595  Biso   1.000  F 
  F15      1.0000 0.56736  0.93336  0.86405  Biso   1.000  F 
  F16      1.0000 0.93264  0.93336  0.36405  Biso   1.000  F 
  F17      1.0000 0.39636  0.63720  0.25634  Biso   1.000  F 
  F18      1.0000 0.10364  0.63720  0.75634  Biso   1.000  F 
  F19      1.0000 0.60364  0.36280  0.74366  Biso   1.000  F 
  F20      1.0000 0.89636  0.36280  0.24366  Biso   1.000  F 
  F21      1.0000 0.37548  0.01332  0.36336  Biso   1.000  F 
  F22      1.0000 0.12452  0.01332  0.86336  Biso   1.000  F 
  F23      1.0000 0.62452  0.98668  0.63664  Biso   1.000  F 
  F24      1.0000 0.87548  0.98668  0.13664  Biso   1.000  F 
  F25      1.0000 0.59530  0.14249  0.30213  Biso   1.000  F 
  F26      1.0000 0.90470  0.14249  0.80213  Biso   1.000  F 
  F27      1.0000 0.40470  0.85751  0.69787  Biso   1.000  F 
  F28      1.0000 0.09530  0.85751  0.19787  Biso   1.000  F 
