data_image0
_cell_length_a       9.3637
_cell_length_b       9.3637
_cell_length_c       9.3637
_cell_angle_alpha    138.682
_cell_angle_beta     108.475
_cell_angle_gamma    86.1033

_symmetry_space_group_name_H-M    "P 1"
_symmetry_int_tables_number       1

loop_
  _symmetry_equiv_pos_as_xyz
  'x, y, z'

loop_
  _atom_site_label
  _atom_site_occupancy
  _atom_site_fract_x
  _atom_site_fract_y
  _atom_site_fract_z
  _atom_site_thermal_displace_type
  _atom_site_B_iso_or_equiv
  _atom_site_type_symbol
  As1      1.0000 0.82336  0.32336  0.00000  Biso   1.000  As
  As2      1.0000 0.32336  0.32336  0.50000  Biso   1.000  As
  As3      1.0000 0.17664  0.67664  1.00000  Biso   1.000  As
  As4      1.0000 0.67664  0.67664  0.50000  Biso   1.000  As
  As5      1.0000 0.75000  0.81896  0.06896  Biso   1.000  As
  As6      1.0000 0.25000  0.18104  0.93104  Biso   1.000  As
  Fe1      1.0000 0.88614  0.88614  0.50000  Biso   1.000  Fe
  Fe2      1.0000 0.38614  0.88614  1.00000  Biso   1.000  Fe
  Fe3      1.0000 0.11386  0.11386  0.50000  Biso   1.000  Fe
  Fe4      1.0000 0.61386  0.11386  0.00000  Biso   1.000  Fe
  Fe5      1.0000 0.50000  0.50000  0.00000  Biso   1.000  Fe
  Fe6      1.0000 0.00000  0.00000  0.00000  Biso   1.000  Fe
  O1       1.0000 0.38081  0.72638  0.07461  Biso   1.000  O 
  O2       1.0000 0.15177  0.80619  0.92539  Biso   1.000  O 
  O3       1.0000 0.88081  0.80619  0.65443  Biso   1.000  O 
  O4       1.0000 0.65177  0.72638  0.34557  Biso   1.000  O 
  O5       1.0000 0.61919  0.27362  0.92539  Biso   1.000  O 
  O6       1.0000 0.84823  0.19381  0.07461  Biso   1.000  O 
  O7       1.0000 0.11919  0.19381  0.34557  Biso   1.000  O 
  O8       1.0000 0.34823  0.27362  0.65443  Biso   1.000  O 
  O9       1.0000 0.35846  0.59755  0.67426  Biso   1.000  O 
  O10      1.0000 0.42328  0.18419  0.32574  Biso   1.000  O 
  O11      1.0000 0.85846  0.18419  0.76091  Biso   1.000  O 
  O12      1.0000 0.92328  0.59755  0.23909  Biso   1.000  O 
  O13      1.0000 0.64154  0.40245  0.32574  Biso   1.000  O 
  O14      1.0000 0.57672  0.81581  0.67426  Biso   1.000  O 
  O15      1.0000 0.14154  0.81581  0.23909  Biso   1.000  O 
  O16      1.0000 0.07672  0.40245  0.76091  Biso   1.000  O 
  O17      1.0000 0.64379  0.57869  0.93490  Biso   1.000  O 
  O18      1.0000 0.14379  0.20889  0.06510  Biso   1.000  O 
  O19      1.0000 0.35621  0.42131  0.06510  Biso   1.000  O 
  O20      1.0000 0.85621  0.79111  0.93490  Biso   1.000  O 
  O21      1.0000 0.62174  0.97622  0.09796  Biso   1.000  O 
  O22      1.0000 0.37826  0.02378  0.90204  Biso   1.000  O 
  O23      1.0000 0.12174  0.02378  0.64552  Biso   1.000  O 
  O24      1.0000 0.87826  0.97622  0.35448  Biso   1.000  O 
