data_image0
_cell_length_a       11.4614
_cell_length_b       5.74573
_cell_length_c       8.01134
_cell_angle_alpha    70.0615
_cell_angle_beta     90
_cell_angle_gamma    90

_symmetry_space_group_name_H-M    "P 1"
_symmetry_int_tables_number       1

loop_
  _symmetry_equiv_pos_as_xyz
  'x, y, z'

loop_
  _atom_site_label
  _atom_site_occupancy
  _atom_site_fract_x
  _atom_site_fract_y
  _atom_site_fract_z
  _atom_site_thermal_displace_type
  _atom_site_B_iso_or_equiv
  _atom_site_type_symbol
  As1      1.0000 0.25000  0.15320  0.85244  Biso   1.000  As
  As2      1.0000 0.75000  0.84680  0.14756  Biso   1.000  As
  F1       1.0000 0.14012  0.93533  0.96291  Biso   1.000  F 
  F2       1.0000 0.64012  0.06467  0.03709  Biso   1.000  F 
  F3       1.0000 0.85988  0.06467  0.03709  Biso   1.000  F 
  F4       1.0000 0.35988  0.93533  0.96291  Biso   1.000  F 
  F5       1.0000 0.13885  0.37195  0.74888  Biso   1.000  F 
  F6       1.0000 0.63885  0.62805  0.25112  Biso   1.000  F 
  F7       1.0000 0.86115  0.62805  0.25112  Biso   1.000  F 
  F8       1.0000 0.36115  0.37195  0.74888  Biso   1.000  F 
  F9       1.0000 0.25000  0.04367  0.67176  Biso   1.000  F 
  F10      1.0000 0.75000  0.95633  0.32824  Biso   1.000  F 
  S1       1.0000 0.37216  0.34202  0.14337  Biso   1.000  S 
  S2       1.0000 0.87216  0.65798  0.85663  Biso   1.000  S 
  S3       1.0000 0.62784  0.65798  0.85663  Biso   1.000  S 
  S4       1.0000 0.12784  0.34202  0.14337  Biso   1.000  S 
  S5       1.0000 0.37973  0.82546  0.39625  Biso   1.000  S 
  S6       1.0000 0.87973  0.17454  0.60375  Biso   1.000  S 
  S7       1.0000 0.62027  0.17454  0.60375  Biso   1.000  S 
  S8       1.0000 0.12027  0.82546  0.39625  Biso   1.000  S 
  N1       1.0000 0.25000  0.28676  0.05008  Biso   1.000  N 
  N2       1.0000 0.75000  0.71324  0.94992  Biso   1.000  N 
  N3       1.0000 0.41725  0.09837  0.29438  Biso   1.000  N 
  N4       1.0000 0.91725  0.90163  0.70562  Biso   1.000  N 
  N5       1.0000 0.58275  0.90163  0.70562  Biso   1.000  N 
  N6       1.0000 0.08275  0.09837  0.29438  Biso   1.000  N 
  N7       1.0000 0.25000  0.74201  0.37701  Biso   1.000  N 
  N8       1.0000 0.75000  0.25799  0.62299  Biso   1.000  N 
