data_image0
_cell_length_a       8.27453
_cell_length_b       6.06425
_cell_length_c       10.6108
_cell_angle_alpha    101.595
_cell_angle_beta     90.0695
_cell_angle_gamma    98.5144

_symmetry_space_group_name_H-M    "P 1"
_symmetry_int_tables_number       1

loop_
  _symmetry_equiv_pos_as_xyz
  'x, y, z'

loop_
  _atom_site_label
  _atom_site_occupancy
  _atom_site_fract_x
  _atom_site_fract_y
  _atom_site_fract_z
  _atom_site_thermal_displace_type
  _atom_site_B_iso_or_equiv
  _atom_site_type_symbol
  I1       1.0000 0.82366  0.80975  0.21606  Biso   1.000  I 
  I2       1.0000 0.17634  0.19025  0.78394  Biso   1.000  I 
  I3       1.0000 0.61942  0.09647  0.17423  Biso   1.000  I 
  I4       1.0000 0.38058  0.90353  0.82577  Biso   1.000  I 
  I5       1.0000 0.77037  0.77449  0.46319  Biso   1.000  I 
  I6       1.0000 0.22963  0.22551  0.53681  Biso   1.000  I 
  As1      1.0000 0.77162  0.55496  0.80672  Biso   1.000  As
  As2      1.0000 0.22838  0.44504  0.19328  Biso   1.000  As
  F1       1.0000 0.75223  0.76676  0.71242  Biso   1.000  F 
  F2       1.0000 0.24777  0.23324  0.28758  Biso   1.000  F 
  F3       1.0000 0.86722  0.77808  0.93124  Biso   1.000  F 
  F4       1.0000 0.13278  0.22192  0.06876  Biso   1.000  F 
  F5       1.0000 0.57649  0.59868  0.87287  Biso   1.000  F 
  F6       1.0000 0.42351  0.40132  0.12713  Biso   1.000  F 
  F7       1.0000 0.79129  0.35459  0.90250  Biso   1.000  F 
  F8       1.0000 0.20871  0.64541  0.09750  Biso   1.000  F 
  F9       1.0000 0.96598  0.52265  0.73968  Biso   1.000  F 
  F10      1.0000 0.03402  0.47735  0.26032  Biso   1.000  F 
  F11      1.0000 0.67455  0.34276  0.68062  Biso   1.000  F 
  F12      1.0000 0.32545  0.65724  0.31938  Biso   1.000  F 
