data_image0
_cell_length_a       9.55912
_cell_length_b       9.55912
_cell_length_c       9.55912
_cell_angle_alpha    90
_cell_angle_beta     90
_cell_angle_gamma    90

_symmetry_space_group_name_H-M    "P 1"
_symmetry_int_tables_number       1

loop_
  _symmetry_equiv_pos_as_xyz
  'x, y, z'

loop_
  _atom_site_label
  _atom_site_occupancy
  _atom_site_fract_x
  _atom_site_fract_y
  _atom_site_fract_z
  _atom_site_thermal_displace_type
  _atom_site_B_iso_or_equiv
  _atom_site_type_symbol
  I1       1.0000 0.00000  0.00000  0.00000  Biso   1.000  I 
  I2       1.0000 0.50000  0.50000  0.00000  Biso   1.000  I 
  I3       1.0000 0.50000  0.00000  0.50000  Biso   1.000  I 
  I4       1.0000 0.00000  0.50000  0.50000  Biso   1.000  I 
  As1      1.0000 0.00000  0.50000  0.00000  Biso   1.000  As
  As2      1.0000 0.50000  0.50000  0.50000  Biso   1.000  As
  As3      1.0000 0.50000  0.00000  0.00000  Biso   1.000  As
  As4      1.0000 0.00000  0.00000  0.50000  Biso   1.000  As
  F1       1.0000 0.86217  0.06241  0.88330  Biso   1.000  F 
  F2       1.0000 0.61670  0.36217  0.06241  Biso   1.000  F 
  F3       1.0000 0.38330  0.86217  0.43759  Biso   1.000  F 
  F4       1.0000 0.88330  0.63783  0.56241  Biso   1.000  F 
  F5       1.0000 0.11670  0.13783  0.93759  Biso   1.000  F 
  F6       1.0000 0.06241  0.61670  0.36217  Biso   1.000  F 
  F7       1.0000 0.43759  0.38330  0.86217  Biso   1.000  F 
  F8       1.0000 0.56241  0.88330  0.63783  Biso   1.000  F 
  F9       1.0000 0.93759  0.11670  0.13783  Biso   1.000  F 
  F10      1.0000 0.36217  0.06241  0.61670  Biso   1.000  F 
  F11      1.0000 0.86217  0.43759  0.38330  Biso   1.000  F 
  F12      1.0000 0.63783  0.56241  0.88330  Biso   1.000  F 
  F13      1.0000 0.13783  0.93759  0.11670  Biso   1.000  F 
  F14      1.0000 0.38330  0.63783  0.93759  Biso   1.000  F 
  F15      1.0000 0.61670  0.13783  0.56241  Biso   1.000  F 
  F16      1.0000 0.11670  0.36217  0.43759  Biso   1.000  F 
  F17      1.0000 0.88330  0.86217  0.06241  Biso   1.000  F 
  F18      1.0000 0.93759  0.38330  0.63783  Biso   1.000  F 
  F19      1.0000 0.56241  0.61670  0.13783  Biso   1.000  F 
  F20      1.0000 0.43759  0.11670  0.36217  Biso   1.000  F 
  F21      1.0000 0.06241  0.88330  0.86217  Biso   1.000  F 
  F22      1.0000 0.63783  0.93759  0.38330  Biso   1.000  F 
  F23      1.0000 0.13783  0.56241  0.61670  Biso   1.000  F 
  F24      1.0000 0.36217  0.43759  0.11670  Biso   1.000  F 
  F25      1.0000 0.85759  0.56005  0.10322  Biso   1.000  F 
  F26      1.0000 0.39678  0.35759  0.56005  Biso   1.000  F 
  F27      1.0000 0.60322  0.85759  0.93995  Biso   1.000  F 
  F28      1.0000 0.10322  0.64241  0.06005  Biso   1.000  F 
  F29      1.0000 0.89678  0.14241  0.43995  Biso   1.000  F 
  F30      1.0000 0.56005  0.39678  0.35759  Biso   1.000  F 
  F31      1.0000 0.93995  0.60322  0.85759  Biso   1.000  F 
  F32      1.0000 0.06005  0.10322  0.64241  Biso   1.000  F 
  F33      1.0000 0.43995  0.89678  0.14241  Biso   1.000  F 
  F34      1.0000 0.35759  0.56005  0.39678  Biso   1.000  F 
  F35      1.0000 0.85759  0.93995  0.60322  Biso   1.000  F 
  F36      1.0000 0.64241  0.06005  0.10322  Biso   1.000  F 
  F37      1.0000 0.14241  0.43995  0.89678  Biso   1.000  F 
  F38      1.0000 0.60322  0.64241  0.43995  Biso   1.000  F 
  F39      1.0000 0.39678  0.14241  0.06005  Biso   1.000  F 
  F40      1.0000 0.89678  0.35759  0.93995  Biso   1.000  F 
  F41      1.0000 0.10322  0.85759  0.56005  Biso   1.000  F 
  F42      1.0000 0.43995  0.60322  0.64241  Biso   1.000  F 
  F43      1.0000 0.06005  0.39678  0.14241  Biso   1.000  F 
  F44      1.0000 0.93995  0.89678  0.35759  Biso   1.000  F 
  F45      1.0000 0.56005  0.10322  0.85759  Biso   1.000  F 
  F46      1.0000 0.64241  0.43995  0.60322  Biso   1.000  F 
  F47      1.0000 0.14241  0.06005  0.39678  Biso   1.000  F 
  F48      1.0000 0.35759  0.93995  0.89678  Biso   1.000  F 
