data_image0
_cell_length_a       5.884
_cell_length_b       5.88426
_cell_length_c       6.53305
_cell_angle_alpha    89.9953
_cell_angle_beta     90.0024
_cell_angle_gamma    120

_symmetry_space_group_name_H-M    "P 1"
_symmetry_int_tables_number       1

loop_
  _symmetry_equiv_pos_as_xyz
  'x, y, z'

loop_
  _atom_site_label
  _atom_site_occupancy
  _atom_site_fract_x
  _atom_site_fract_y
  _atom_site_fract_z
  _atom_site_thermal_displace_type
  _atom_site_B_iso_or_equiv
  _atom_site_type_symbol
  As1      1.0000 0.33331  0.66665  0.25000  Biso   1.000  As
  As2      1.0000 0.66669  0.33339  0.75000  Biso   1.000  As
  F1       1.0000 0.16501  0.33005  0.24996  Biso   1.000  F 
  F2       1.0000 0.16504  0.83497  0.25004  Biso   1.000  F 
  F3       1.0000 0.66990  0.83503  0.25000  Biso   1.000  F 
  F4       1.0000 0.83496  0.16505  0.75001  Biso   1.000  F 
  F5       1.0000 0.83498  0.66996  0.74999  Biso   1.000  F 
  F6       1.0000 0.33010  0.16509  0.75000  Biso   1.000  F 
  F7       1.0000 0.33334  0.66666  0.98215  Biso   1.000  F 
  F8       1.0000 0.33334  0.66672  0.51786  Biso   1.000  F 
  F9       1.0000 0.66666  0.33333  0.48215  Biso   1.000  F 
  F10      1.0000 0.66666  0.33331  0.01785  Biso   1.000  F 
