data_image0
_cell_length_a       5.10168
_cell_length_b       5.10168
_cell_length_c       11.7082
_cell_angle_alpha    89.9993
_cell_angle_beta     90.0012
_cell_angle_gamma    120.001

_symmetry_space_group_name_H-M    "P 1"
_symmetry_int_tables_number       1

loop_
  _symmetry_equiv_pos_as_xyz
  'x, y, z'

loop_
  _atom_site_label
  _atom_site_occupancy
  _atom_site_fract_x
  _atom_site_fract_y
  _atom_site_fract_z
  _atom_site_thermal_displace_type
  _atom_site_B_iso_or_equiv
  _atom_site_type_symbol
  Ga1      1.0000 0.45381  0.99998  0.33335  Biso   1.000  Ga
  Ga2      1.0000 0.54620  0.54619  1.00000  Biso   1.000  Ga
  Ga3      1.0000 0.99999  0.45382  0.66666  Biso   1.000  Ga
  As1      1.0000 0.45123  0.99998  0.83333  Biso   1.000  As
  As2      1.0000 0.54877  0.54876  0.50000  Biso   1.000  As
  As3      1.0000 0.99999  0.45123  0.16667  Biso   1.000  As
  O1       1.0000 0.39660  0.31772  0.38294  Biso   1.000  O 
  O2       1.0000 0.07888  0.68226  0.28373  Biso   1.000  O 
  O3       1.0000 0.60340  0.92114  0.95041  Biso   1.000  O 
  O4       1.0000 0.31771  0.39661  0.61707  Biso   1.000  O 
  O5       1.0000 0.92115  0.60339  0.04961  Biso   1.000  O 
  O6       1.0000 0.68227  0.07889  0.71628  Biso   1.000  O 
  O7       1.0000 0.39687  0.29458  0.87086  Biso   1.000  O 
  O8       1.0000 0.10228  0.70542  0.79582  Biso   1.000  O 
  O9       1.0000 0.60315  0.89772  0.46249  Biso   1.000  O 
  O10      1.0000 0.29457  0.39687  0.12915  Biso   1.000  O 
  O11      1.0000 0.89773  0.60316  0.53752  Biso   1.000  O 
  O12      1.0000 0.70542  0.10228  0.20419  Biso   1.000  O 
