data_image0
_cell_length_a       5.18109
_cell_length_b       10.2382
_cell_length_c       12.4098
_cell_angle_alpha    90
_cell_angle_beta     90
_cell_angle_gamma    90

_symmetry_space_group_name_H-M    "P 1"
_symmetry_int_tables_number       1

loop_
  _symmetry_equiv_pos_as_xyz
  'x, y, z'

loop_
  _atom_site_label
  _atom_site_occupancy
  _atom_site_fract_x
  _atom_site_fract_y
  _atom_site_fract_z
  _atom_site_thermal_displace_type
  _atom_site_B_iso_or_equiv
  _atom_site_type_symbol
  Ge1      1.0000 0.75000  0.50000  0.26379  Biso   1.000  Ge
  Ge2      1.0000 0.75000  0.00000  0.23621  Biso   1.000  Ge
  Ge3      1.0000 0.25000  0.50000  0.73621  Biso   1.000  Ge
  Ge4      1.0000 0.25000  0.00000  0.76379  Biso   1.000  Ge
  Ge5      1.0000 0.79765  0.25000  0.75000  Biso   1.000  Ge
  Ge6      1.0000 0.70235  0.75000  0.75000  Biso   1.000  Ge
  Ge7      1.0000 0.20235  0.75000  0.25000  Biso   1.000  Ge
  Ge8      1.0000 0.29765  0.25000  0.25000  Biso   1.000  Ge
  As1      1.0000 0.58133  0.08636  0.63325  Biso   1.000  As
  As2      1.0000 0.91867  0.91364  0.63325  Biso   1.000  As
  As3      1.0000 0.58133  0.41364  0.86675  Biso   1.000  As
  As4      1.0000 0.91867  0.58636  0.86675  Biso   1.000  As
  As5      1.0000 0.41867  0.91364  0.36675  Biso   1.000  As
  As6      1.0000 0.08133  0.08636  0.36675  Biso   1.000  As
  As7      1.0000 0.41867  0.58636  0.13325  Biso   1.000  As
  As8      1.0000 0.08133  0.41364  0.13325  Biso   1.000  As
  Se1      1.0000 0.42796  0.65592  0.61321  Biso   1.000  Se
  Se2      1.0000 0.07204  0.34408  0.61321  Biso   1.000  Se
  Se3      1.0000 0.42796  0.84408  0.88679  Biso   1.000  Se
  Se4      1.0000 0.07204  0.15592  0.88679  Biso   1.000  Se
  Se5      1.0000 0.57204  0.34408  0.38679  Biso   1.000  Se
  Se6      1.0000 0.92796  0.65592  0.38679  Biso   1.000  Se
  Se7      1.0000 0.57204  0.15592  0.11321  Biso   1.000  Se
  Se8      1.0000 0.92796  0.84408  0.11321  Biso   1.000  Se
