data_image0
_cell_length_a       8.75894
_cell_length_b       8.75894
_cell_length_c       20.7022
_cell_angle_alpha    90
_cell_angle_beta     90
_cell_angle_gamma    90.3911

_symmetry_space_group_name_H-M    "P 1"
_symmetry_int_tables_number       1

loop_
  _symmetry_equiv_pos_as_xyz
  'x, y, z'

loop_
  _atom_site_label
  _atom_site_occupancy
  _atom_site_fract_x
  _atom_site_fract_y
  _atom_site_fract_z
  _atom_site_thermal_displace_type
  _atom_site_B_iso_or_equiv
  _atom_site_type_symbol
  Hg1      1.0000 0.55349  0.44651  0.17140  Biso   1.000  Hg
  Hg2      1.0000 0.44651  0.55349  0.82860  Biso   1.000  Hg
  Hg3      1.0000 0.94651  0.05349  0.67140  Biso   1.000  Hg
  Hg4      1.0000 0.05349  0.94651  0.32860  Biso   1.000  Hg
  Hg5      1.0000 0.23305  0.76695  0.17208  Biso   1.000  Hg
  Hg6      1.0000 0.76695  0.23305  0.82792  Biso   1.000  Hg
  Hg7      1.0000 0.26695  0.73305  0.67208  Biso   1.000  Hg
  Hg8      1.0000 0.73305  0.26695  0.32792  Biso   1.000  Hg
  Hg9      1.0000 0.73446  0.94168  0.17319  Biso   1.000  Hg
  Hg10     1.0000 0.94168  0.73446  0.82681  Biso   1.000  Hg
  Hg11     1.0000 0.44168  0.23446  0.67319  Biso   1.000  Hg
  Hg12     1.0000 0.23446  0.44168  0.32681  Biso   1.000  Hg
  Hg13     1.0000 0.26554  0.05832  0.82681  Biso   1.000  Hg
  Hg14     1.0000 0.05832  0.26554  0.17319  Biso   1.000  Hg
  Hg15     1.0000 0.55832  0.76554  0.32681  Biso   1.000  Hg
  Hg16     1.0000 0.76554  0.55832  0.67319  Biso   1.000  Hg
  I1       1.0000 0.56871  0.79085  0.08394  Biso   1.000  I 
  I2       1.0000 0.79085  0.56871  0.91606  Biso   1.000  I 
  I3       1.0000 0.29085  0.06871  0.58394  Biso   1.000  I 
  I4       1.0000 0.06871  0.29085  0.41606  Biso   1.000  I 
  I5       1.0000 0.43129  0.20915  0.91606  Biso   1.000  I 
  I6       1.0000 0.20915  0.43129  0.08394  Biso   1.000  I 
  I7       1.0000 0.70915  0.93129  0.41606  Biso   1.000  I 
  I8       1.0000 0.93129  0.70915  0.58394  Biso   1.000  I 
  I9       1.0000 0.71253  0.28747  0.08322  Biso   1.000  I 
  I10      1.0000 0.28747  0.71253  0.91678  Biso   1.000  I 
  I11      1.0000 0.78747  0.21253  0.58322  Biso   1.000  I 
  I12      1.0000 0.21253  0.78747  0.41678  Biso   1.000  I 
  I13      1.0000 0.07206  0.92794  0.08460  Biso   1.000  I 
  I14      1.0000 0.92794  0.07206  0.91540  Biso   1.000  I 
  I15      1.0000 0.42794  0.57206  0.58460  Biso   1.000  I 
  I16      1.0000 0.57206  0.42794  0.41540  Biso   1.000  I 
  I17      1.0000 0.88852  0.61148  0.25000  Biso   1.000  I 
  I18      1.0000 0.61148  0.88852  0.75000  Biso   1.000  I 
  I19      1.0000 0.11148  0.38852  0.75000  Biso   1.000  I 
  I20      1.0000 0.38852  0.11148  0.25000  Biso   1.000  I 
  As1      1.0000 0.39361  0.60639  0.24949  Biso   1.000  As
  As2      1.0000 0.60639  0.39361  0.75051  Biso   1.000  As
  As3      1.0000 0.10639  0.89361  0.74949  Biso   1.000  As
  As4      1.0000 0.89361  0.10639  0.25051  Biso   1.000  As
