data_image0
_cell_length_a       4.79965
_cell_length_b       6.37254
_cell_length_c       14.5931
_cell_angle_alpha    85.4213
_cell_angle_beta     90
_cell_angle_gamma    90

_symmetry_space_group_name_H-M    "P 1"
_symmetry_int_tables_number       1

loop_
  _symmetry_equiv_pos_as_xyz
  'x, y, z'

loop_
  _atom_site_label
  _atom_site_occupancy
  _atom_site_fract_x
  _atom_site_fract_y
  _atom_site_fract_z
  _atom_site_thermal_displace_type
  _atom_site_B_iso_or_equiv
  _atom_site_type_symbol
  Te1      1.0000 0.85284  0.14472  0.17902  Biso   1.000  Te
  Te2      1.0000 0.35284  0.85528  0.32098  Biso   1.000  Te
  Te3      1.0000 0.14716  0.85528  0.82098  Biso   1.000  Te
  Te4      1.0000 0.64716  0.14472  0.67902  Biso   1.000  Te
  As1      1.0000 0.65523  0.34739  0.38197  Biso   1.000  As
  As2      1.0000 0.15523  0.65261  0.11803  Biso   1.000  As
  As3      1.0000 0.34477  0.65261  0.61803  Biso   1.000  As
  As4      1.0000 0.84477  0.34739  0.88197  Biso   1.000  As
  O1       1.0000 0.55693  0.59843  0.40084  Biso   1.000  O 
  O2       1.0000 0.05693  0.40157  0.09916  Biso   1.000  O 
  O3       1.0000 0.44307  0.40157  0.59916  Biso   1.000  O 
  O4       1.0000 0.94307  0.59843  0.90084  Biso   1.000  O 
  O5       1.0000 0.81341  0.36079  0.27317  Biso   1.000  O 
  O6       1.0000 0.31341  0.63921  0.22683  Biso   1.000  O 
  O7       1.0000 0.18659  0.63921  0.72683  Biso   1.000  O 
  O8       1.0000 0.68659  0.36079  0.77317  Biso   1.000  O 
  O9       1.0000 0.22705  0.07179  0.21418  Biso   1.000  O 
  O10      1.0000 0.72705  0.92821  0.28582  Biso   1.000  O 
  O11      1.0000 0.77295  0.92821  0.78582  Biso   1.000  O 
  O12      1.0000 0.27295  0.07179  0.71418  Biso   1.000  O 
  O13      1.0000 0.38297  0.17492  0.39466  Biso   1.000  O 
  O14      1.0000 0.88297  0.82508  0.10534  Biso   1.000  O 
  O15      1.0000 0.61703  0.82508  0.60534  Biso   1.000  O 
  O16      1.0000 0.11703  0.17492  0.89466  Biso   1.000  O 
  O17      1.0000 0.90265  0.26438  0.46410  Biso   1.000  O 
  O18      1.0000 0.40265  0.73562  0.03590  Biso   1.000  O 
  O19      1.0000 0.09735  0.73562  0.53590  Biso   1.000  O 
  O20      1.0000 0.59735  0.26438  0.96410  Biso   1.000  O 
  H1       1.0000 0.09485  0.24440  0.43613  Biso   1.000  H 
  H2       1.0000 0.59485  0.75560  0.06387  Biso   1.000  H 
  H3       1.0000 0.90515  0.75560  0.56387  Biso   1.000  H 
  H4       1.0000 0.40515  0.24440  0.93613  Biso   1.000  H 
