data_image0
_cell_length_a       4.95135
_cell_length_b       4.95135
_cell_length_c       7.72063
_cell_angle_alpha    90
_cell_angle_beta     90
_cell_angle_gamma    120

_symmetry_space_group_name_H-M    "P 1"
_symmetry_int_tables_number       1

loop_
  _symmetry_equiv_pos_as_xyz
  'x, y, z'

loop_
  _atom_site_label
  _atom_site_occupancy
  _atom_site_fract_x
  _atom_site_fract_y
  _atom_site_fract_z
  _atom_site_thermal_displace_type
  _atom_site_B_iso_or_equiv
  _atom_site_type_symbol
  Hg1      1.0000 0.00000  0.00000  0.83225  Biso   1.000  Hg
  Hg2      1.0000 0.00000  0.00000  0.16775  Biso   1.000  Hg
  As1      1.0000 0.66667  0.33333  0.50000  Biso   1.000  As
  As2      1.0000 0.33333  0.66667  0.50000  Biso   1.000  As
  O1       1.0000 1.00000  0.37958  0.63549  Biso   1.000  O 
  O2       1.0000 0.37958  0.00000  0.63549  Biso   1.000  O 
  O3       1.0000 0.62042  0.62042  0.63549  Biso   1.000  O 
  O4       1.0000 0.00000  0.62042  0.36451  Biso   1.000  O 
  O5       1.0000 0.62042  0.00000  0.36451  Biso   1.000  O 
  O6       1.0000 0.37958  0.37958  0.36451  Biso   1.000  O 
