data_image0
_cell_length_a       6.28236
_cell_length_b       7.75025
_cell_length_c       8.74073
_cell_angle_alpha    90
_cell_angle_beta     90
_cell_angle_gamma    90

_symmetry_space_group_name_H-M    "P 1"
_symmetry_int_tables_number       1

loop_
  _symmetry_equiv_pos_as_xyz
  'x, y, z'

loop_
  _atom_site_label
  _atom_site_occupancy
  _atom_site_fract_x
  _atom_site_fract_y
  _atom_site_fract_z
  _atom_site_thermal_displace_type
  _atom_site_B_iso_or_equiv
  _atom_site_type_symbol
  Hg1      1.0000 0.25000  0.88962  0.67055  Biso   1.000  Hg
  Hg2      1.0000 0.25000  0.38962  0.82945  Biso   1.000  Hg
  Hg3      1.0000 0.75000  0.11038  0.32945  Biso   1.000  Hg
  Hg4      1.0000 0.75000  0.61038  0.17055  Biso   1.000  Hg
  As1      1.0000 0.25000  0.85166  0.31302  Biso   1.000  As
  As2      1.0000 0.25000  0.35166  0.18698  Biso   1.000  As
  As3      1.0000 0.75000  0.14834  0.68698  Biso   1.000  As
  As4      1.0000 0.75000  0.64834  0.81302  Biso   1.000  As
  Zn1      1.0000 0.00000  0.50000  0.50000  Biso   1.000  Zn
  Zn2      1.0000 0.50000  0.00000  0.00000  Biso   1.000  Zn
  Zn3      1.0000 0.50000  0.50000  0.50000  Biso   1.000  Zn
  Zn4      1.0000 0.00000  0.00000  0.00000  Biso   1.000  Zn
  O1       1.0000 0.02004  0.86586  0.20574  Biso   1.000  O 
  O2       1.0000 0.47996  0.36586  0.29426  Biso   1.000  O 
  O3       1.0000 0.52004  0.13414  0.79426  Biso   1.000  O 
  O4       1.0000 0.97996  0.63414  0.70574  Biso   1.000  O 
  O5       1.0000 0.97996  0.13414  0.79426  Biso   1.000  O 
  O6       1.0000 0.52004  0.63414  0.70574  Biso   1.000  O 
  O7       1.0000 0.47996  0.86586  0.20574  Biso   1.000  O 
  O8       1.0000 0.02004  0.36586  0.29426  Biso   1.000  O 
  O9       1.0000 0.25000  0.51610  0.04916  Biso   1.000  O 
  O10      1.0000 0.25000  0.01610  0.45084  Biso   1.000  O 
  O11      1.0000 0.75000  0.48390  0.95084  Biso   1.000  O 
  O12      1.0000 0.75000  0.98390  0.54916  Biso   1.000  O 
  O13      1.0000 0.25000  0.66392  0.42127  Biso   1.000  O 
  O14      1.0000 0.25000  0.16392  0.07873  Biso   1.000  O 
  O15      1.0000 0.75000  0.33608  0.57873  Biso   1.000  O 
  O16      1.0000 0.75000  0.83608  0.92127  Biso   1.000  O 
  O17      1.0000 0.25000  0.86682  0.91894  Biso   1.000  O 
  O18      1.0000 0.25000  0.36682  0.58106  Biso   1.000  O 
  O19      1.0000 0.75000  0.13318  0.08106  Biso   1.000  O 
  O20      1.0000 0.75000  0.63318  0.41894  Biso   1.000  O 
  H1       1.0000 0.25000  0.74652  0.95561  Biso   1.000  H 
  H2       1.0000 0.25000  0.24652  0.54439  Biso   1.000  H 
  H3       1.0000 0.75000  0.25348  0.04439  Biso   1.000  H 
  H4       1.0000 0.75000  0.75348  0.45561  Biso   1.000  H 
