data_image0
_cell_length_a       5.3843
_cell_length_b       5.3843
_cell_length_c       7.48352
_cell_angle_alpha    103.491
_cell_angle_beta     103.491
_cell_angle_gamma    98.4426

_symmetry_space_group_name_H-M    "P 1"
_symmetry_int_tables_number       1

loop_
  _symmetry_equiv_pos_as_xyz
  'x, y, z'

loop_
  _atom_site_label
  _atom_site_occupancy
  _atom_site_fract_x
  _atom_site_fract_y
  _atom_site_fract_z
  _atom_site_thermal_displace_type
  _atom_site_B_iso_or_equiv
  _atom_site_type_symbol
  Mn1      1.0000 0.00000  0.50000  0.50000  Biso   1.000  Mn
  Mn2      1.0000 0.50000  0.00000  1.00000  Biso   1.000  Mn
  As1      1.0000 0.43485  0.56515  0.25000  Biso   1.000  As
  As2      1.0000 0.56515  0.43485  0.75000  Biso   1.000  As
  O1       1.0000 0.69755  0.34217  0.56223  Biso   1.000  O 
  O2       1.0000 0.65783  0.30245  0.93777  Biso   1.000  O 
  O3       1.0000 0.30245  0.65783  0.43777  Biso   1.000  O 
  O4       1.0000 0.34217  0.69755  0.06223  Biso   1.000  O 
  O5       1.0000 0.66930  0.76731  0.84502  Biso   1.000  O 
  O6       1.0000 0.23269  0.33070  0.65498  Biso   1.000  O 
  O7       1.0000 0.33070  0.23269  0.15498  Biso   1.000  O 
  O8       1.0000 0.76731  0.66930  0.34502  Biso   1.000  O 
  O9       1.0000 0.89484  0.10516  0.25000  Biso   1.000  O 
  O10      1.0000 0.10516  0.89484  0.75000  Biso   1.000  O 
  H1       1.0000 0.88079  0.94572  0.29661  Biso   1.000  H 
  H2       1.0000 0.05428  0.11921  0.20339  Biso   1.000  H 
  H3       1.0000 0.11921  0.05428  0.70339  Biso   1.000  H 
  H4       1.0000 0.94572  0.88079  0.79661  Biso   1.000  H 
