data_image0
_cell_length_a       6.0114
_cell_length_b       8.33427
_cell_length_c       8.47762
_cell_angle_alpha    90
_cell_angle_beta     90
_cell_angle_gamma    90

_symmetry_space_group_name_H-M    "P 1"
_symmetry_int_tables_number       1

loop_
  _symmetry_equiv_pos_as_xyz
  'x, y, z'

loop_
  _atom_site_label
  _atom_site_occupancy
  _atom_site_fract_x
  _atom_site_fract_y
  _atom_site_fract_z
  _atom_site_thermal_displace_type
  _atom_site_B_iso_or_equiv
  _atom_site_type_symbol
  As1      1.0000 0.00000  0.74968  0.25527  Biso   1.000  As
  As2      1.0000 0.00000  0.25032  0.74473  Biso   1.000  As
  As3      1.0000 0.50000  0.24968  0.24473  Biso   1.000  As
  As4      1.0000 0.50000  0.75032  0.75527  Biso   1.000  As
  Zn1      1.0000 0.74788  0.50000  0.50000  Biso   1.000  Zn
  Zn2      1.0000 0.75212  0.00000  0.00000  Biso   1.000  Zn
  Zn3      1.0000 0.25212  0.50000  0.50000  Biso   1.000  Zn
  Zn4      1.0000 0.24788  0.00000  0.00000  Biso   1.000  Zn
  Zn5      1.0000 0.50000  0.63267  0.13553  Biso   1.000  Zn
  Zn6      1.0000 0.50000  0.36733  0.86447  Biso   1.000  Zn
  Zn7      1.0000 0.00000  0.13267  0.36447  Biso   1.000  Zn
  Zn8      1.0000 0.00000  0.86733  0.63553  Biso   1.000  Zn
  O1       1.0000 0.00000  0.57043  0.35766  Biso   1.000  O 
  O2       1.0000 0.00000  0.42957  0.64234  Biso   1.000  O 
  O3       1.0000 0.50000  0.07043  0.14234  Biso   1.000  O 
  O4       1.0000 0.50000  0.92957  0.85766  Biso   1.000  O 
  O5       1.0000 0.50000  0.60272  0.37099  Biso   1.000  O 
  O6       1.0000 0.50000  0.39728  0.62901  Biso   1.000  O 
  O7       1.0000 0.00000  0.10272  0.12901  Biso   1.000  O 
  O8       1.0000 0.00000  0.89728  0.87099  Biso   1.000  O 
  O9       1.0000 0.00000  0.89810  0.39617  Biso   1.000  O 
  O10      1.0000 0.00000  0.10190  0.60383  Biso   1.000  O 
  O11      1.0000 0.50000  0.39810  0.10383  Biso   1.000  O 
  O12      1.0000 0.50000  0.60190  0.89617  Biso   1.000  O 
  O13      1.0000 0.77112  0.76914  0.13369  Biso   1.000  O 
  O14      1.0000 0.77112  0.23086  0.86631  Biso   1.000  O 
  O15      1.0000 0.72888  0.26914  0.36631  Biso   1.000  O 
  O16      1.0000 0.72888  0.73086  0.63369  Biso   1.000  O 
  O17      1.0000 0.22888  0.23086  0.86631  Biso   1.000  O 
  O18      1.0000 0.22888  0.76914  0.13369  Biso   1.000  O 
  O19      1.0000 0.27112  0.73086  0.63369  Biso   1.000  O 
  O20      1.0000 0.27112  0.26914  0.36631  Biso   1.000  O 
  H1       1.0000 0.50000  0.71072  0.41623  Biso   1.000  H 
  H2       1.0000 0.50000  0.28928  0.58377  Biso   1.000  H 
  H3       1.0000 0.00000  0.21072  0.08377  Biso   1.000  H 
  H4       1.0000 0.00000  0.78928  0.91623  Biso   1.000  H 
