data_image0
_cell_length_a       9.25206
_cell_length_b       7.16549
_cell_length_c       10.7672
_cell_angle_alpha    57.3278
_cell_angle_beta     90
_cell_angle_gamma    90

_symmetry_space_group_name_H-M    "P 1"
_symmetry_int_tables_number       1

loop_
  _symmetry_equiv_pos_as_xyz
  'x, y, z'

loop_
  _atom_site_label
  _atom_site_occupancy
  _atom_site_fract_x
  _atom_site_fract_y
  _atom_site_fract_z
  _atom_site_thermal_displace_type
  _atom_site_B_iso_or_equiv
  _atom_site_type_symbol
  Hg1      1.0000 0.86309  0.65566  0.34461  Biso   1.000  Hg
  Hg2      1.0000 0.63691  0.65566  0.84461  Biso   1.000  Hg
  Hg3      1.0000 0.13691  0.34434  0.65539  Biso   1.000  Hg
  Hg4      1.0000 0.36309  0.34434  0.15539  Biso   1.000  Hg
  Hg5      1.0000 0.99428  0.77156  0.98745  Biso   1.000  Hg
  Hg6      1.0000 0.50572  0.77156  0.48745  Biso   1.000  Hg
  Hg7      1.0000 0.00572  0.22844  0.01255  Biso   1.000  Hg
  Hg8      1.0000 0.49428  0.22844  0.51255  Biso   1.000  Hg
  Hg9      1.0000 0.63150  0.96077  0.05191  Biso   1.000  Hg
  Hg10     1.0000 0.86850  0.96077  0.55191  Biso   1.000  Hg
  Hg11     1.0000 0.36850  0.03923  0.94809  Biso   1.000  Hg
  Hg12     1.0000 0.13150  0.03923  0.44809  Biso   1.000  Hg
  As1      1.0000 0.75991  0.30002  0.70797  Biso   1.000  As
  As2      1.0000 0.74009  0.30002  0.20797  Biso   1.000  As
  As3      1.0000 0.24009  0.69998  0.29203  Biso   1.000  As
  As4      1.0000 0.25991  0.69998  0.79203  Biso   1.000  As
  O1       1.0000 0.86429  0.86086  0.11449  Biso   1.000  O 
  O2       1.0000 0.63571  0.86086  0.61449  Biso   1.000  O 
  O3       1.0000 0.13571  0.13914  0.88551  Biso   1.000  O 
  O4       1.0000 0.36429  0.13914  0.38551  Biso   1.000  O 
  O5       1.0000 0.76756  0.33075  0.85543  Biso   1.000  O 
  O6       1.0000 0.73244  0.33075  0.35544  Biso   1.000  O 
  O7       1.0000 0.23244  0.66925  0.14457  Biso   1.000  O 
  O8       1.0000 0.26756  0.66925  0.64457  Biso   1.000  O 
  O9       1.0000 0.82294  0.04636  0.75292  Biso   1.000  O 
  O10      1.0000 0.67706  0.04636  0.25292  Biso   1.000  O 
  O11      1.0000 0.17706  0.95364  0.24708  Biso   1.000  O 
  O12      1.0000 0.32294  0.95364  0.74708  Biso   1.000  O 
  O13      1.0000 0.87023  0.51621  0.57424  Biso   1.000  O 
  O14      1.0000 0.62977  0.51621  0.07424  Biso   1.000  O 
  O15      1.0000 0.12977  0.48379  0.42576  Biso   1.000  O 
  O16      1.0000 0.37023  0.48379  0.92576  Biso   1.000  O 
  O17      1.0000 0.58245  0.34947  0.64254  Biso   1.000  O 
  O18      1.0000 0.91755  0.34947  0.14254  Biso   1.000  O 
  O19      1.0000 0.41755  0.65053  0.35746  Biso   1.000  O 
  O20      1.0000 0.08245  0.65053  0.85746  Biso   1.000  O 
