data_image0
_cell_length_a       6.06785
_cell_length_b       7.80383
_cell_length_c       9.29773
_cell_angle_alpha    90
_cell_angle_beta     90
_cell_angle_gamma    90

_symmetry_space_group_name_H-M    "P 1"
_symmetry_int_tables_number       1

loop_
  _symmetry_equiv_pos_as_xyz
  'x, y, z'

loop_
  _atom_site_label
  _atom_site_occupancy
  _atom_site_fract_x
  _atom_site_fract_y
  _atom_site_fract_z
  _atom_site_thermal_displace_type
  _atom_site_B_iso_or_equiv
  _atom_site_type_symbol
  Sr1      1.0000 0.02848  0.36991  0.82956  Biso   1.000  Sr
  Sr2      1.0000 0.52848  0.13009  0.17044  Biso   1.000  Sr
  Sr3      1.0000 0.97152  0.86991  0.67044  Biso   1.000  Sr
  Sr4      1.0000 0.47152  0.63009  0.32956  Biso   1.000  Sr
  Zn1      1.0000 0.27817  0.77743  0.98429  Biso   1.000  Zn
  Zn2      1.0000 0.77817  0.72257  0.01571  Biso   1.000  Zn
  Zn3      1.0000 0.72183  0.27743  0.51571  Biso   1.000  Zn
  Zn4      1.0000 0.22183  0.22257  0.48429  Biso   1.000  Zn
  As1      1.0000 0.98277  0.37194  0.18476  Biso   1.000  As
  As2      1.0000 0.48277  0.12806  0.81524  Biso   1.000  As
  As3      1.0000 0.01723  0.87194  0.31524  Biso   1.000  As
  As4      1.0000 0.51723  0.62806  0.68476  Biso   1.000  As
  O1       1.0000 0.00653  0.54830  0.07134  Biso   1.000  O 
  O2       1.0000 0.50653  0.95170  0.92866  Biso   1.000  O 
  O3       1.0000 0.99347  0.04830  0.42866  Biso   1.000  O 
  O4       1.0000 0.49347  0.45170  0.57134  Biso   1.000  O 
  O5       1.0000 0.93083  0.20341  0.07004  Biso   1.000  O 
  O6       1.0000 0.43083  0.29659  0.92996  Biso   1.000  O 
  O7       1.0000 0.06917  0.70341  0.42996  Biso   1.000  O 
  O8       1.0000 0.56917  0.79659  0.57004  Biso   1.000  O 
  O9       1.0000 0.27202  0.65212  0.77796  Biso   1.000  O 
  O10      1.0000 0.77202  0.84788  0.22204  Biso   1.000  O 
  O11      1.0000 0.72798  0.15212  0.72204  Biso   1.000  O 
  O12      1.0000 0.22798  0.34788  0.27796  Biso   1.000  O 
  O13      1.0000 0.74660  0.61429  0.79475  Biso   1.000  O 
  O14      1.0000 0.24660  0.88571  0.20525  Biso   1.000  O 
  O15      1.0000 0.25340  0.11429  0.70525  Biso   1.000  O 
  O16      1.0000 0.75340  0.38571  0.29475  Biso   1.000  O 
  O17      1.0000 0.99718  0.87809  0.94127  Biso   1.000  O 
  O18      1.0000 0.49718  0.62191  0.05873  Biso   1.000  O 
  O19      1.0000 0.00282  0.37809  0.55873  Biso   1.000  O 
  O20      1.0000 0.50282  0.12191  0.44127  Biso   1.000  O 
  H1       1.0000 0.98421  0.98778  0.99382  Biso   1.000  H 
  H2       1.0000 0.48421  0.51222  0.00618  Biso   1.000  H 
  H3       1.0000 0.01579  0.48778  0.50618  Biso   1.000  H 
  H4       1.0000 0.51579  0.01222  0.49382  Biso   1.000  H 
