data_image0
_cell_length_a       6.57353
_cell_length_b       8.43088
_cell_length_c       8.68725
_cell_angle_alpha    90
_cell_angle_beta     90
_cell_angle_gamma    90

_symmetry_space_group_name_H-M    "P 1"
_symmetry_int_tables_number       1

loop_
  _symmetry_equiv_pos_as_xyz
  'x, y, z'

loop_
  _atom_site_label
  _atom_site_occupancy
  _atom_site_fract_x
  _atom_site_fract_y
  _atom_site_fract_z
  _atom_site_thermal_displace_type
  _atom_site_B_iso_or_equiv
  _atom_site_type_symbol
  Mn1      1.0000 0.74488  0.50000  0.50000  Biso   1.000  Mn
  Mn2      1.0000 0.75512  0.00000  0.00000  Biso   1.000  Mn
  Mn3      1.0000 0.25512  0.50000  0.50000  Biso   1.000  Mn
  Mn4      1.0000 0.24488  0.00000  0.00000  Biso   1.000  Mn
  Mn5      1.0000 0.00000  0.85513  0.36641  Biso   1.000  Mn
  Mn6      1.0000 0.00000  0.14487  0.63359  Biso   1.000  Mn
  Mn7      1.0000 0.50000  0.35513  0.13359  Biso   1.000  Mn
  Mn8      1.0000 0.50000  0.64487  0.86641  Biso   1.000  Mn
  As1      1.0000 0.50000  0.75177  0.24782  Biso   1.000  As
  As2      1.0000 0.50000  0.24823  0.75218  Biso   1.000  As
  As3      1.0000 0.00000  0.25177  0.25218  Biso   1.000  As
  As4      1.0000 0.00000  0.74823  0.74782  Biso   1.000  As
  O1       1.0000 0.00000  0.88422  0.12838  Biso   1.000  O 
  O2       1.0000 0.00000  0.11578  0.87162  Biso   1.000  O 
  O3       1.0000 0.50000  0.38422  0.37162  Biso   1.000  O 
  O4       1.0000 0.50000  0.61578  0.62838  Biso   1.000  O 
  O5       1.0000 0.50000  0.92911  0.14777  Biso   1.000  O 
  O6       1.0000 0.50000  0.07089  0.85223  Biso   1.000  O 
  O7       1.0000 0.00000  0.42911  0.35223  Biso   1.000  O 
  O8       1.0000 0.00000  0.57089  0.64777  Biso   1.000  O 
  O9       1.0000 0.50000  0.60654  0.10814  Biso   1.000  O 
  O10      1.0000 0.50000  0.39346  0.89186  Biso   1.000  O 
  O11      1.0000 0.00000  0.10654  0.39186  Biso   1.000  O 
  O12      1.0000 0.00000  0.89346  0.60814  Biso   1.000  O 
  O13      1.0000 0.71159  0.73063  0.36352  Biso   1.000  O 
  O14      1.0000 0.71159  0.26937  0.63648  Biso   1.000  O 
  O15      1.0000 0.78841  0.23063  0.13648  Biso   1.000  O 
  O16      1.0000 0.78841  0.76937  0.86352  Biso   1.000  O 
  O17      1.0000 0.28841  0.26937  0.63648  Biso   1.000  O 
  O18      1.0000 0.28841  0.73063  0.36352  Biso   1.000  O 
  O19      1.0000 0.21159  0.76937  0.86352  Biso   1.000  O 
  O20      1.0000 0.21159  0.23063  0.13648  Biso   1.000  O 
  H1       1.0000 0.00000  0.78066  0.07797  Biso   1.000  H 
  H2       1.0000 0.00000  0.21934  0.92203  Biso   1.000  H 
  H3       1.0000 0.50000  0.28066  0.42203  Biso   1.000  H 
  H4       1.0000 0.50000  0.71934  0.57797  Biso   1.000  H 
