data_image0
_cell_length_a       6.06601
_cell_length_b       7.92253
_cell_length_c       9.63557
_cell_angle_alpha    78.235
_cell_angle_beta     90
_cell_angle_gamma    90

_symmetry_space_group_name_H-M    "P 1"
_symmetry_int_tables_number       1

loop_
  _symmetry_equiv_pos_as_xyz
  'x, y, z'

loop_
  _atom_site_label
  _atom_site_occupancy
  _atom_site_fract_x
  _atom_site_fract_y
  _atom_site_fract_z
  _atom_site_thermal_displace_type
  _atom_site_B_iso_or_equiv
  _atom_site_type_symbol
  Te1      1.0000 0.62581  0.38453  0.91365  Biso   1.000  Te
  Te2      1.0000 0.12581  0.61546  0.58635  Biso   1.000  Te
  Te3      1.0000 0.37419  0.61547  0.08635  Biso   1.000  Te
  Te4      1.0000 0.87419  0.38454  0.41365  Biso   1.000  Te
  As1      1.0000 0.86894  0.77712  0.91909  Biso   1.000  As
  As2      1.0000 0.36894  0.22288  0.58091  Biso   1.000  As
  As3      1.0000 0.13106  0.22288  0.08091  Biso   1.000  As
  As4      1.0000 0.63106  0.77712  0.41909  Biso   1.000  As
  O1       1.0000 0.61256  0.42323  0.10530  Biso   1.000  O 
  O2       1.0000 0.11256  0.57677  0.39470  Biso   1.000  O 
  O3       1.0000 0.38744  0.57677  0.89470  Biso   1.000  O 
  O4       1.0000 0.88744  0.42323  0.60530  Biso   1.000  O 
  O5       1.0000 0.10835  0.79419  0.00902  Biso   1.000  O 
  O6       1.0000 0.60835  0.20581  0.49098  Biso   1.000  O 
  O7       1.0000 0.89165  0.20581  0.99098  Biso   1.000  O 
  O8       1.0000 0.39165  0.79419  0.50902  Biso   1.000  O 
  O9       1.0000 0.85805  0.58365  0.85927  Biso   1.000  O 
  O10      1.0000 0.35805  0.41634  0.64073  Biso   1.000  O 
  O11      1.0000 0.14195  0.41634  0.14073  Biso   1.000  O 
  O12      1.0000 0.64195  0.58366  0.35927  Biso   1.000  O 
  O13      1.0000 0.65016  0.80302  0.02720  Biso   1.000  O 
  O14      1.0000 0.15016  0.19698  0.47280  Biso   1.000  O 
  O15      1.0000 0.34984  0.19698  0.97280  Biso   1.000  O 
  O16      1.0000 0.84984  0.80302  0.52720  Biso   1.000  O 
  O17      1.0000 0.86773  0.94068  0.76776  Biso   1.000  O 
  O18      1.0000 0.36773  0.05932  0.73224  Biso   1.000  O 
  O19      1.0000 0.13227  0.05932  0.23224  Biso   1.000  O 
  O20      1.0000 0.63227  0.94068  0.26776  Biso   1.000  O 
  H1       1.0000 0.83001  0.89496  0.68109  Biso   1.000  H 
  H2       1.0000 0.33001  0.10504  0.81891  Biso   1.000  H 
  H3       1.0000 0.16999  0.10504  0.31891  Biso   1.000  H 
  H4       1.0000 0.66999  0.89496  0.18109  Biso   1.000  H 
