data_image0
_cell_length_a       6.47944
_cell_length_b       7.70817
_cell_length_c       6.68374
_cell_angle_alpha    85.9449
_cell_angle_beta     96.958
_cell_angle_gamma    123.704

_symmetry_space_group_name_H-M    "P 1"
_symmetry_int_tables_number       1

loop_
  _symmetry_equiv_pos_as_xyz
  'x, y, z'

loop_
  _atom_site_label
  _atom_site_occupancy
  _atom_site_fract_x
  _atom_site_fract_y
  _atom_site_fract_z
  _atom_site_thermal_displace_type
  _atom_site_B_iso_or_equiv
  _atom_site_type_symbol
  In1      1.0000 0.51329  0.68020  0.15296  Biso   1.000  In
  In2      1.0000 0.48671  0.31980  0.84704  Biso   1.000  In
  As1      1.0000 0.84560  0.89402  0.74379  Biso   1.000  As
  As2      1.0000 0.15440  0.10598  0.25621  Biso   1.000  As
  O1       1.0000 0.68739  0.66071  0.90434  Biso   1.000  O 
  O2       1.0000 0.31261  0.33929  0.09566  Biso   1.000  O 
  O3       1.0000 0.77840  0.28912  0.97680  Biso   1.000  O 
  O4       1.0000 0.22160  0.71088  0.02320  Biso   1.000  O 
  O5       1.0000 0.56325  0.69997  0.46935  Biso   1.000  O 
  O6       1.0000 0.43675  0.30003  0.53065  Biso   1.000  O 
  O7       1.0000 0.16807  0.98029  0.84837  Biso   1.000  O 
  O8       1.0000 0.83193  0.01971  0.15163  Biso   1.000  O 
  O9       1.0000 0.82635  0.75464  0.52237  Biso   1.000  O 
  O10      1.0000 0.17365  0.24536  0.47763  Biso   1.000  O 
  H1       1.0000 0.80501  0.13637  0.07991  Biso   1.000  H 
  H2       1.0000 0.19499  0.86363  0.92009  Biso   1.000  H 
  H3       1.0000 0.07241  0.62096  0.09324  Biso   1.000  H 
  H4       1.0000 0.92759  0.37904  0.90676  Biso   1.000  H 
