data_image0
_cell_length_a       4.45623
_cell_length_b       11.8407
_cell_length_c       19.6079
_cell_angle_alpha    54.8697
_cell_angle_beta     90
_cell_angle_gamma    90

_symmetry_space_group_name_H-M    "P 1"
_symmetry_int_tables_number       1

loop_
  _symmetry_equiv_pos_as_xyz
  'x, y, z'

loop_
  _atom_site_label
  _atom_site_occupancy
  _atom_site_fract_x
  _atom_site_fract_y
  _atom_site_fract_z
  _atom_site_thermal_displace_type
  _atom_site_B_iso_or_equiv
  _atom_site_type_symbol
  Hg1      1.0000 0.12866  0.29839  0.82126  Biso   1.000  Hg
  Hg2      1.0000 0.37134  0.29839  0.32126  Biso   1.000  Hg
  Hg3      1.0000 0.87134  0.70161  0.17874  Biso   1.000  Hg
  Hg4      1.0000 0.62866  0.70161  0.67874  Biso   1.000  Hg
  Hg5      1.0000 0.76736  0.94289  0.92400  Biso   1.000  Hg
  Hg6      1.0000 0.73264  0.94289  0.42400  Biso   1.000  Hg
  Hg7      1.0000 0.23264  0.05711  0.07600  Biso   1.000  Hg
  Hg8      1.0000 0.26736  0.05711  0.57600  Biso   1.000  Hg
  Hg9      1.0000 0.77606  0.20543  0.68819  Biso   1.000  Hg
  Hg10     1.0000 0.72394  0.20543  0.18819  Biso   1.000  Hg
  Hg11     1.0000 0.22394  0.79457  0.31181  Biso   1.000  Hg
  Hg12     1.0000 0.27606  0.79457  0.81181  Biso   1.000  Hg
  Sb1      1.0000 0.68850  0.40638  0.95071  Biso   1.000  Sb
  Sb2      1.0000 0.81150  0.40638  0.45071  Biso   1.000  Sb
  Sb3      1.0000 0.31150  0.59362  0.04929  Biso   1.000  Sb
  Sb4      1.0000 0.18850  0.59362  0.54929  Biso   1.000  Sb
  As1      1.0000 0.14463  0.09680  0.80813  Biso   1.000  As
  As2      1.0000 0.35537  0.09680  0.30813  Biso   1.000  As
  As3      1.0000 0.85537  0.90320  0.19187  Biso   1.000  As
  As4      1.0000 0.64463  0.90320  0.69187  Biso   1.000  As
  S1       1.0000 0.05154  0.49098  0.83483  Biso   1.000  S 
  S2       1.0000 0.44846  0.49098  0.33483  Biso   1.000  S 
  S3       1.0000 0.94846  0.50902  0.16517  Biso   1.000  S 
  S4       1.0000 0.55154  0.50902  0.66517  Biso   1.000  S 
  S5       1.0000 0.38906  0.81667  0.03468  Biso   1.000  S 
  S6       1.0000 0.11094  0.81667  0.53468  Biso   1.000  S 
  S7       1.0000 0.61094  0.18333  0.96532  Biso   1.000  S 
  S8       1.0000 0.88906  0.18333  0.46532  Biso   1.000  S 
  S9       1.0000 0.43163  0.31266  0.56968  Biso   1.000  S 
  S10      1.0000 0.06837  0.31266  0.06968  Biso   1.000  S 
  S11      1.0000 0.56837  0.68734  0.43032  Biso   1.000  S 
  S12      1.0000 0.93163  0.68734  0.93032  Biso   1.000  S 
