data_image0
_cell_length_a       3.95418
_cell_length_b       9.26937
_cell_length_c       13.9004
_cell_angle_alpha    47.2754
_cell_angle_beta     90
_cell_angle_gamma    90

_symmetry_space_group_name_H-M    "P 1"
_symmetry_int_tables_number       1

loop_
  _symmetry_equiv_pos_as_xyz
  'x, y, z'

loop_
  _atom_site_label
  _atom_site_occupancy
  _atom_site_fract_x
  _atom_site_fract_y
  _atom_site_fract_z
  _atom_site_thermal_displace_type
  _atom_site_B_iso_or_equiv
  _atom_site_type_symbol
  I1       1.0000 0.94613  0.36846  0.42443  Biso   1.000  I 
  I2       1.0000 0.55387  0.36846  0.92443  Biso   1.000  I 
  I3       1.0000 0.05387  0.63154  0.57557  Biso   1.000  I 
  I4       1.0000 0.44613  0.63154  0.07557  Biso   1.000  I 
  Se1      1.0000 0.43539  0.90363  0.69562  Biso   1.000  Se
  Se2      1.0000 0.06461  0.90363  0.19562  Biso   1.000  Se
  Se3      1.0000 0.56461  0.09637  0.30438  Biso   1.000  Se
  Se4      1.0000 0.93539  0.09637  0.80438  Biso   1.000  Se
  As1      1.0000 0.41428  0.22325  0.63467  Biso   1.000  As
  As2      1.0000 0.08572  0.22325  0.13467  Biso   1.000  As
  As3      1.0000 0.58572  0.77675  0.36533  Biso   1.000  As
  As4      1.0000 0.91428  0.77675  0.86533  Biso   1.000  As
