data_image0
_cell_length_a       8.40427
_cell_length_b       8.40427
_cell_length_c       8.40427
_cell_angle_alpha    51.5907
_cell_angle_beta     51.5907
_cell_angle_gamma    51.5907

_symmetry_space_group_name_H-M    "P 1"
_symmetry_int_tables_number       1

loop_
  _symmetry_equiv_pos_as_xyz
  'x, y, z'

loop_
  _atom_site_label
  _atom_site_occupancy
  _atom_site_fract_x
  _atom_site_fract_y
  _atom_site_fract_z
  _atom_site_thermal_displace_type
  _atom_site_B_iso_or_equiv
  _atom_site_type_symbol
  As1      1.0000 0.16899  0.16899  0.16899  Biso   1.000  As
  As2      1.0000 0.83101  0.83101  0.83101  Biso   1.000  As
  I1       1.0000 0.57510  0.21941  0.93594  Biso   1.000  I 
  I2       1.0000 0.21941  0.93594  0.57509  Biso   1.000  I 
  I3       1.0000 0.93594  0.57509  0.21941  Biso   1.000  I 
  I4       1.0000 0.42491  0.78059  0.06406  Biso   1.000  I 
  I5       1.0000 0.78059  0.06406  0.42491  Biso   1.000  I 
  I6       1.0000 0.06406  0.42491  0.78059  Biso   1.000  I 
