data_image0
_cell_length_a       14.8353
_cell_length_b       14.8353
_cell_length_c       14.8353
_cell_angle_alpha    118.84
_cell_angle_beta     118.84
_cell_angle_gamma    118.84

_symmetry_space_group_name_H-M    "P 1"
_symmetry_int_tables_number       1

loop_
  _symmetry_equiv_pos_as_xyz
  'x, y, z'

loop_
  _atom_site_label
  _atom_site_occupancy
  _atom_site_fract_x
  _atom_site_fract_y
  _atom_site_fract_z
  _atom_site_thermal_displace_type
  _atom_site_B_iso_or_equiv
  _atom_site_type_symbol
  I1       1.0000 0.10942  0.95272  0.95272  Biso   1.000  I 
  I2       1.0000 0.95272  0.95272  0.10942  Biso   1.000  I 
  I3       1.0000 0.95272  0.10942  0.95272  Biso   1.000  I 
  As1      1.0000 0.25167  0.25167  0.25167  Biso   1.000  As
  S1       1.0000 0.03613  0.63741  0.63741  Biso   1.000  S 
  S2       1.0000 0.63741  0.63741  0.03613  Biso   1.000  S 
  S3       1.0000 0.63741  0.03613  0.63741  Biso   1.000  S 
  S4       1.0000 0.26479  0.88033  0.74911  Biso   1.000  S 
  S5       1.0000 0.88033  0.74911  0.26479  Biso   1.000  S 
  S6       1.0000 0.74911  0.26479  0.88033  Biso   1.000  S 
  S7       1.0000 0.26479  0.74911  0.88033  Biso   1.000  S 
  S8       1.0000 0.74911  0.88033  0.26479  Biso   1.000  S 
  S9       1.0000 0.88033  0.26479  0.74911  Biso   1.000  S 
  S10      1.0000 0.11453  0.64810  0.46215  Biso   1.000  S 
  S11      1.0000 0.64810  0.46215  0.11453  Biso   1.000  S 
  S12      1.0000 0.46215  0.11453  0.64810  Biso   1.000  S 
  S13      1.0000 0.11453  0.46215  0.64810  Biso   1.000  S 
  S14      1.0000 0.46215  0.64810  0.11453  Biso   1.000  S 
  S15      1.0000 0.64810  0.11453  0.46215  Biso   1.000  S 
  S16      1.0000 0.37324  0.76156  0.63013  Biso   1.000  S 
  S17      1.0000 0.76156  0.63013  0.37324  Biso   1.000  S 
  S18      1.0000 0.63013  0.37324  0.76156  Biso   1.000  S 
  S19      1.0000 0.37324  0.63013  0.76156  Biso   1.000  S 
  S20      1.0000 0.63013  0.76156  0.37324  Biso   1.000  S 
  S21      1.0000 0.76156  0.37324  0.63013  Biso   1.000  S 
  S22      1.0000 0.18987  0.46973  0.46973  Biso   1.000  S 
  S23      1.0000 0.46973  0.46973  0.18987  Biso   1.000  S 
  S24      1.0000 0.46973  0.18987  0.46973  Biso   1.000  S 
