data_image0
_cell_length_a       6.60378
_cell_length_b       6.60468
_cell_length_c       12.7787
_cell_angle_alpha    100.505
_cell_angle_beta     100.498
_cell_angle_gamma    106.539

_symmetry_space_group_name_H-M    "P 1"
_symmetry_int_tables_number       1

loop_
  _symmetry_equiv_pos_as_xyz
  'x, y, z'

loop_
  _atom_site_label
  _atom_site_occupancy
  _atom_site_fract_x
  _atom_site_fract_y
  _atom_site_fract_z
  _atom_site_thermal_displace_type
  _atom_site_B_iso_or_equiv
  _atom_site_type_symbol
  K1       1.0000 0.03115  0.04765  0.25961  Biso   1.000  K 
  K2       1.0000 0.07592  0.60208  0.49491  Biso   1.000  K 
  K3       1.0000 0.98660  0.09265  0.75980  Biso   1.000  K 
  K4       1.0000 0.54073  0.13733  0.99492  Biso   1.000  K 
  As1      1.0000 0.32913  0.58228  0.17712  Biso   1.000  As
  As2      1.0000 0.57014  0.98815  0.44584  Biso   1.000  As
  As3      1.0000 0.52127  0.39058  0.67727  Biso   1.000  As
  As4      1.0000 0.92687  0.63121  0.94571  Biso   1.000  As
  Se1      1.0000 0.97501  0.52055  0.20382  Biso   1.000  Se
  Se2      1.0000 0.29418  0.59169  0.98087  Biso   1.000  Se
  Se3      1.0000 0.94547  0.06327  0.50200  Biso   1.000  Se
  Se4      1.0000 0.50508  0.98429  0.24567  Biso   1.000  Se
  Se5      1.0000 0.45946  0.03626  0.70383  Biso   1.000  Se
  Se6      1.0000 0.53027  0.35534  0.48090  Biso   1.000  Se
  Se7      1.0000 0.00178  0.00669  0.00199  Biso   1.000  Se
  Se8      1.0000 0.92322  0.56636  0.74563  Biso   1.000  Se
