data_image0
_cell_length_a       7.42231
_cell_length_b       7.63176
_cell_length_c       5.51662
_cell_angle_alpha    90
_cell_angle_beta     90
_cell_angle_gamma    90

_symmetry_space_group_name_H-M    "P 1"
_symmetry_int_tables_number       1

loop_
  _symmetry_equiv_pos_as_xyz
  'x, y, z'

loop_
  _atom_site_label
  _atom_site_occupancy
  _atom_site_fract_x
  _atom_site_fract_y
  _atom_site_fract_z
  _atom_site_thermal_displace_type
  _atom_site_B_iso_or_equiv
  _atom_site_type_symbol
  As1      1.0000 0.14730  0.87519  0.25000  Biso   1.000  As
  As2      1.0000 0.14730  0.62481  0.75000  Biso   1.000  As
  As3      1.0000 0.85270  0.37519  0.25000  Biso   1.000  As
  As4      1.0000 0.85270  0.12481  0.75000  Biso   1.000  As
  K1       1.0000 0.36379  0.40612  0.25000  Biso   1.000  K 
  K2       1.0000 0.36379  0.09388  0.75000  Biso   1.000  K 
  K3       1.0000 0.63621  0.90612  0.25000  Biso   1.000  K 
  K4       1.0000 0.63621  0.59388  0.75000  Biso   1.000  K 
  O1       1.0000 0.28799  0.05452  0.25000  Biso   1.000  O 
  O2       1.0000 0.28799  0.44548  0.75000  Biso   1.000  O 
  O3       1.0000 0.71201  0.55452  0.25000  Biso   1.000  O 
  O4       1.0000 0.71201  0.94548  0.75000  Biso   1.000  O 
  O5       1.0000 0.26188  0.75000  0.00000  Biso   1.000  O 
  O6       1.0000 0.26188  0.75000  0.50000  Biso   1.000  O 
  O7       1.0000 0.73812  0.25000  0.00000  Biso   1.000  O 
  O8       1.0000 0.73812  0.25000  0.50000  Biso   1.000  O 
