data_image0
_cell_length_a       13.584
_cell_length_b       6.86044
_cell_length_c       11.0735
_cell_angle_alpha    90
_cell_angle_beta     90
_cell_angle_gamma    90

_symmetry_space_group_name_H-M    "P 1"
_symmetry_int_tables_number       1

loop_
  _symmetry_equiv_pos_as_xyz
  'x, y, z'

loop_
  _atom_site_label
  _atom_site_occupancy
  _atom_site_fract_x
  _atom_site_fract_y
  _atom_site_fract_z
  _atom_site_thermal_displace_type
  _atom_site_B_iso_or_equiv
  _atom_site_type_symbol
  K1       1.0000 0.63087  0.22677  0.30052  Biso   1.000  K 
  K2       1.0000 0.13087  0.27323  0.30052  Biso   1.000  K 
  K3       1.0000 0.86913  0.72677  0.80052  Biso   1.000  K 
  K4       1.0000 0.36913  0.77323  0.80052  Biso   1.000  K 
  K5       1.0000 0.88660  0.30944  0.06311  Biso   1.000  K 
  K6       1.0000 0.38660  0.19056  0.06311  Biso   1.000  K 
  K7       1.0000 0.61340  0.80944  0.56311  Biso   1.000  K 
  K8       1.0000 0.11340  0.69056  0.56311  Biso   1.000  K 
  Sn1      1.0000 0.74934  0.74670  0.25041  Biso   1.000  Sn
  Sn2      1.0000 0.24934  0.75330  0.25041  Biso   1.000  Sn
  Sn3      1.0000 0.75066  0.24670  0.75041  Biso   1.000  Sn
  Sn4      1.0000 0.25066  0.25330  0.75041  Biso   1.000  Sn
  Sn5      1.0000 0.62480  0.50049  0.99879  Biso   1.000  Sn
  Sn6      1.0000 0.12480  0.99951  0.99879  Biso   1.000  Sn
  Sn7      1.0000 0.87520  0.00049  0.49879  Biso   1.000  Sn
  Sn8      1.0000 0.37520  0.49951  0.49879  Biso   1.000  Sn
  As1      1.0000 0.49747  0.66931  0.24714  Biso   1.000  As
  As2      1.0000 0.99747  0.83069  0.24714  Biso   1.000  As
  As3      1.0000 0.00253  0.16931  0.74714  Biso   1.000  As
  As4      1.0000 0.50253  0.33069  0.74714  Biso   1.000  As
  As5      1.0000 0.82180  0.49809  0.50133  Biso   1.000  As
  As6      1.0000 0.32180  0.00191  0.50133  Biso   1.000  As
  As7      1.0000 0.67820  0.99809  0.00133  Biso   1.000  As
  As8      1.0000 0.17820  0.50191  0.00133  Biso   1.000  As
  O1       1.0000 0.50716  0.50988  0.12726  Biso   1.000  O 
  O2       1.0000 0.00716  0.99012  0.12726  Biso   1.000  O 
  O3       1.0000 0.99284  0.00988  0.62726  Biso   1.000  O 
  O4       1.0000 0.49284  0.49012  0.62726  Biso   1.000  O 
  O5       1.0000 0.00870  0.02110  0.87325  Biso   1.000  O 
  O6       1.0000 0.50870  0.47890  0.87325  Biso   1.000  O 
  O7       1.0000 0.49130  0.52110  0.37325  Biso   1.000  O 
  O8       1.0000 0.99130  0.97890  0.37325  Biso   1.000  O 
  O9       1.0000 0.59643  0.82154  0.26834  Biso   1.000  O 
  O10      1.0000 0.09643  0.67846  0.26834  Biso   1.000  O 
  O11      1.0000 0.90357  0.32154  0.76834  Biso   1.000  O 
  O12      1.0000 0.40357  0.17846  0.76834  Biso   1.000  O 
  O13      1.0000 0.10015  0.32486  0.72705  Biso   1.000  O 
  O14      1.0000 0.60015  0.17514  0.72705  Biso   1.000  O 
  O15      1.0000 0.39985  0.82486  0.22705  Biso   1.000  O 
  O16      1.0000 0.89985  0.67514  0.22705  Biso   1.000  O 
  O17      1.0000 0.89766  0.69328  0.53087  Biso   1.000  O 
  O18      1.0000 0.39766  0.80672  0.53087  Biso   1.000  O 
  O19      1.0000 0.60234  0.19328  0.03087  Biso   1.000  O 
  O20      1.0000 0.10234  0.30672  0.03087  Biso   1.000  O 
  O21      1.0000 0.39551  0.19756  0.46966  Biso   1.000  O 
  O22      1.0000 0.89551  0.30244  0.46966  Biso   1.000  O 
  O23      1.0000 0.10449  0.69756  0.96966  Biso   1.000  O 
  O24      1.0000 0.60449  0.80244  0.96966  Biso   1.000  O 
  O25      1.0000 0.77955  0.02500  0.63662  Biso   1.000  O 
  O26      1.0000 0.27955  0.47500  0.63662  Biso   1.000  O 
  O27      1.0000 0.72045  0.52500  0.13662  Biso   1.000  O 
  O28      1.0000 0.22045  0.97500  0.13662  Biso   1.000  O 
  O29      1.0000 0.26847  0.54372  0.37677  Biso   1.000  O 
  O30      1.0000 0.76847  0.95628  0.37677  Biso   1.000  O 
  O31      1.0000 0.23153  0.04372  0.87677  Biso   1.000  O 
  O32      1.0000 0.73153  0.45628  0.87677  Biso   1.000  O 
  O33      1.0000 0.74405  0.47196  0.62320  Biso   1.000  O 
  O34      1.0000 0.24405  0.02804  0.62320  Biso   1.000  O 
  O35      1.0000 0.75595  0.97196  0.12320  Biso   1.000  O 
  O36      1.0000 0.25595  0.52804  0.12320  Biso   1.000  O 
  O37      1.0000 0.23780  0.96374  0.38778  Biso   1.000  O 
  O38      1.0000 0.73780  0.53626  0.38778  Biso   1.000  O 
  O39      1.0000 0.26220  0.46374  0.88778  Biso   1.000  O 
  O40      1.0000 0.76220  0.03626  0.88778  Biso   1.000  O 
