data_image0
_cell_length_a       4.4749
_cell_length_b       6.2731
_cell_length_c       6.74536
_cell_angle_alpha    90
_cell_angle_beta     90
_cell_angle_gamma    90

_symmetry_space_group_name_H-M    "P 1"
_symmetry_int_tables_number       1

loop_
  _symmetry_equiv_pos_as_xyz
  'x, y, z'

loop_
  _atom_site_label
  _atom_site_occupancy
  _atom_site_fract_x
  _atom_site_fract_y
  _atom_site_fract_z
  _atom_site_thermal_displace_type
  _atom_site_B_iso_or_equiv
  _atom_site_type_symbol
  As1      1.0000 0.50000  0.65658  0.00000  Biso   1.000  As
  As2      1.0000 0.00000  0.34342  0.50000  Biso   1.000  As
  K1       1.0000 0.50000  0.89824  0.50000  Biso   1.000  K 
  K2       1.0000 0.00000  0.10176  0.00000  Biso   1.000  K 
  Li1      1.0000 0.50000  0.40340  0.30621  Biso   1.000  Li
  Li2      1.0000 0.50000  0.40340  0.69379  Biso   1.000  Li
  Li3      1.0000 0.00000  0.59660  0.19379  Biso   1.000  Li
  Li4      1.0000 0.00000  0.59660  0.80621  Biso   1.000  Li
