data_image0
_cell_length_a       5.0026
_cell_length_b       11.5481
_cell_length_c       11.7568
_cell_angle_alpha    90
_cell_angle_beta     90
_cell_angle_gamma    90

_symmetry_space_group_name_H-M    "P 1"
_symmetry_int_tables_number       1

loop_
  _symmetry_equiv_pos_as_xyz
  'x, y, z'

loop_
  _atom_site_label
  _atom_site_occupancy
  _atom_site_fract_x
  _atom_site_fract_y
  _atom_site_fract_z
  _atom_site_thermal_displace_type
  _atom_site_B_iso_or_equiv
  _atom_site_type_symbol
  As1      1.0000 0.72107  0.73033  0.91198  Biso   1.000  As
  As2      1.0000 0.22107  0.76967  0.58802  Biso   1.000  As
  As3      1.0000 0.27893  0.23033  0.58802  Biso   1.000  As
  As4      1.0000 0.77893  0.26967  0.91198  Biso   1.000  As
  As5      1.0000 0.27893  0.26967  0.08802  Biso   1.000  As
  As6      1.0000 0.77893  0.23033  0.41198  Biso   1.000  As
  As7      1.0000 0.72107  0.76967  0.41198  Biso   1.000  As
  As8      1.0000 0.22107  0.73033  0.08802  Biso   1.000  As
  K1       1.0000 0.25000  0.50000  0.81289  Biso   1.000  K 
  K2       1.0000 0.75000  0.00000  0.68711  Biso   1.000  K 
  K3       1.0000 0.75000  0.50000  0.18711  Biso   1.000  K 
  K4       1.0000 0.25000  0.00000  0.31289  Biso   1.000  K 
  K5       1.0000 0.75000  0.50000  0.60981  Biso   1.000  K 
  K6       1.0000 0.25000  0.00000  0.89019  Biso   1.000  K 
  K7       1.0000 0.25000  0.50000  0.39019  Biso   1.000  K 
  K8       1.0000 0.75000  0.00000  0.10981  Biso   1.000  K 
  O1       1.0000 0.74770  0.87419  0.90027  Biso   1.000  O 
  O2       1.0000 0.24770  0.62581  0.59973  Biso   1.000  O 
  O3       1.0000 0.25230  0.37419  0.59973  Biso   1.000  O 
  O4       1.0000 0.75230  0.12581  0.90027  Biso   1.000  O 
  O5       1.0000 0.25230  0.12581  0.09973  Biso   1.000  O 
  O6       1.0000 0.75230  0.37419  0.40027  Biso   1.000  O 
  O7       1.0000 0.74770  0.62581  0.40027  Biso   1.000  O 
  O8       1.0000 0.24770  0.87419  0.09973  Biso   1.000  O 
  O9       1.0000 0.79008  0.63908  0.80659  Biso   1.000  O 
  O10      1.0000 0.29008  0.86092  0.69341  Biso   1.000  O 
  O11      1.0000 0.20992  0.13908  0.69341  Biso   1.000  O 
  O12      1.0000 0.70992  0.36092  0.80659  Biso   1.000  O 
  O13      1.0000 0.20992  0.36092  0.19341  Biso   1.000  O 
  O14      1.0000 0.70992  0.13908  0.30659  Biso   1.000  O 
  O15      1.0000 0.79008  0.86092  0.30659  Biso   1.000  O 
  O16      1.0000 0.29008  0.63908  0.19341  Biso   1.000  O 
  O17      1.0000 0.39112  0.68555  0.95811  Biso   1.000  O 
  O18      1.0000 0.89112  0.81445  0.54189  Biso   1.000  O 
  O19      1.0000 0.60888  0.18555  0.54189  Biso   1.000  O 
  O20      1.0000 0.10888  0.31445  0.95811  Biso   1.000  O 
  O21      1.0000 0.60888  0.31445  0.04189  Biso   1.000  O 
  O22      1.0000 0.10888  0.18555  0.45811  Biso   1.000  O 
  O23      1.0000 0.39112  0.81445  0.45811  Biso   1.000  O 
  O24      1.0000 0.89112  0.68555  0.04189  Biso   1.000  O 
