data_image0
_cell_length_a       4.6589
_cell_length_b       6.03928
_cell_length_c       13.1425
_cell_angle_alpha    90
_cell_angle_beta     90
_cell_angle_gamma    90

_symmetry_space_group_name_H-M    "P 1"
_symmetry_int_tables_number       1

loop_
  _symmetry_equiv_pos_as_xyz
  'x, y, z'

loop_
  _atom_site_label
  _atom_site_occupancy
  _atom_site_fract_x
  _atom_site_fract_y
  _atom_site_fract_z
  _atom_site_thermal_displace_type
  _atom_site_B_iso_or_equiv
  _atom_site_type_symbol
  As1      1.0000 0.32737  0.80787  0.57798  Biso   1.000  As
  As2      1.0000 0.67263  0.30787  0.92202  Biso   1.000  As
  As3      1.0000 0.17263  0.19213  0.07798  Biso   1.000  As
  As4      1.0000 0.82737  0.69213  0.42202  Biso   1.000  As
  O1       1.0000 0.25785  0.61948  0.66759  Biso   1.000  O 
  O2       1.0000 0.74215  0.11948  0.83241  Biso   1.000  O 
  O3       1.0000 0.24215  0.38052  0.16759  Biso   1.000  O 
  O4       1.0000 0.75785  0.88052  0.33241  Biso   1.000  O 
  O5       1.0000 0.27169  0.07894  0.59314  Biso   1.000  O 
  O6       1.0000 0.72831  0.57894  0.90686  Biso   1.000  O 
  O7       1.0000 0.22831  0.92106  0.09314  Biso   1.000  O 
  O8       1.0000 0.77169  0.42106  0.40686  Biso   1.000  O 
  O9       1.0000 0.20521  0.72305  0.45297  Biso   1.000  O 
  O10      1.0000 0.79479  0.22305  0.04703  Biso   1.000  O 
  O11      1.0000 0.29479  0.27695  0.95297  Biso   1.000  O 
  O12      1.0000 0.70521  0.77695  0.54703  Biso   1.000  O 
  K1       1.0000 0.78281  0.31402  0.64171  Biso   1.000  K 
  K2       1.0000 0.21719  0.81402  0.85829  Biso   1.000  K 
  K3       1.0000 0.71719  0.68598  0.14171  Biso   1.000  K 
  K4       1.0000 0.28281  0.18598  0.35829  Biso   1.000  K 
