data_image0
_cell_length_a       6.61325
_cell_length_b       6.61325
_cell_length_c       12.8661
_cell_angle_alpha    79.3497
_cell_angle_beta     79.3497
_cell_angle_gamma    106.406

_symmetry_space_group_name_H-M    "P 1"
_symmetry_int_tables_number       1

loop_
  _symmetry_equiv_pos_as_xyz
  'x, y, z'

loop_
  _atom_site_label
  _atom_site_occupancy
  _atom_site_fract_x
  _atom_site_fract_y
  _atom_site_fract_z
  _atom_site_thermal_displace_type
  _atom_site_B_iso_or_equiv
  _atom_site_type_symbol
  K1       1.0000 0.95022  0.49605  0.24048  Biso   1.000  K 
  K2       1.0000 0.49605  0.95022  0.74048  Biso   1.000  K 
  K3       1.0000 0.13680  0.17167  0.00471  Biso   1.000  K 
  K4       1.0000 0.17167  0.13680  0.50471  Biso   1.000  K 
  As1      1.0000 0.56625  0.87479  0.32399  Biso   1.000  As
  As2      1.0000 0.87479  0.56625  0.82399  Biso   1.000  As
  As3      1.0000 0.59235  0.73700  0.05501  Biso   1.000  As
  As4      1.0000 0.73700  0.59235  0.55501  Biso   1.000  As
  Se1      1.0000 0.94663  0.96682  0.29523  Biso   1.000  Se
  Se2      1.0000 0.96682  0.94663  0.79523  Biso   1.000  Se
  Se3      1.0000 0.40717  0.67156  0.51959  Biso   1.000  Se
  Se4      1.0000 0.67156  0.40717  0.01959  Biso   1.000  Se
  Se5      1.0000 0.27482  0.71748  0.99741  Biso   1.000  Se
  Se6      1.0000 0.71748  0.27482  0.49741  Biso   1.000  Se
  Se7      1.0000 0.46063  0.54317  0.25357  Biso   1.000  Se
  Se8      1.0000 0.54317  0.46063  0.75357  Biso   1.000  Se
