data_image0
_cell_length_a       4.18931
_cell_length_b       4.18931
_cell_length_c       12.9638
_cell_angle_alpha    90
_cell_angle_beta     90
_cell_angle_gamma    120

_symmetry_space_group_name_H-M    "P 1"
_symmetry_int_tables_number       1

loop_
  _symmetry_equiv_pos_as_xyz
  'x, y, z'

loop_
  _atom_site_label
  _atom_site_occupancy
  _atom_site_fract_x
  _atom_site_fract_y
  _atom_site_fract_z
  _atom_site_thermal_displace_type
  _atom_site_B_iso_or_equiv
  _atom_site_type_symbol
  K1       1.0000 0.66667  0.33333  0.49584  Biso   1.000  K 
  K2       1.0000 0.33333  0.66667  0.99584  Biso   1.000  K 
  Sn1      1.0000 0.00000  0.00000  0.77606  Biso   1.000  Sn
  Sn2      1.0000 0.00000  0.00000  0.27606  Biso   1.000  Sn
  As1      1.0000 0.66667  0.33333  0.17320  Biso   1.000  As
  As2      1.0000 0.33333  0.66667  0.67320  Biso   1.000  As
