data_image0
_cell_length_a       7.49306
_cell_length_b       8.17483
_cell_length_c       14.0865
_cell_angle_alpha    90
_cell_angle_beta     90
_cell_angle_gamma    90

_symmetry_space_group_name_H-M    "P 1"
_symmetry_int_tables_number       1

loop_
  _symmetry_equiv_pos_as_xyz
  'x, y, z'

loop_
  _atom_site_label
  _atom_site_occupancy
  _atom_site_fract_x
  _atom_site_fract_y
  _atom_site_fract_z
  _atom_site_thermal_displace_type
  _atom_site_B_iso_or_equiv
  _atom_site_type_symbol
  K1       1.0000 0.50000  0.39582  0.65976  Biso   1.000  K 
  K2       1.0000 0.50000  0.60418  0.34024  Biso   1.000  K 
  K3       1.0000 0.50000  0.89582  0.84024  Biso   1.000  K 
  K4       1.0000 0.50000  0.10418  0.15976  Biso   1.000  K 
  Sn1      1.0000 0.26757  0.50000  0.00000  Biso   1.000  Sn
  Sn2      1.0000 0.73243  0.00000  0.50000  Biso   1.000  Sn
  Sn3      1.0000 0.73243  0.50000  0.00000  Biso   1.000  Sn
  Sn4      1.0000 0.26757  0.00000  0.50000  Biso   1.000  Sn
  As1      1.0000 0.00000  0.69895  0.77644  Biso   1.000  As
  As2      1.0000 0.00000  0.30105  0.22356  Biso   1.000  As
  As3      1.0000 0.00000  0.19895  0.72356  Biso   1.000  As
  As4      1.0000 0.00000  0.80105  0.27644  Biso   1.000  As
  S1       1.0000 0.00000  0.71708  0.02255  Biso   1.000  S 
  S2       1.0000 0.00000  0.28292  0.97745  Biso   1.000  S 
  S3       1.0000 0.00000  0.21708  0.47745  Biso   1.000  S 
  S4       1.0000 0.00000  0.78292  0.52255  Biso   1.000  S 
  S5       1.0000 0.50000  0.71287  0.03779  Biso   1.000  S 
  S6       1.0000 0.50000  0.28713  0.96221  Biso   1.000  S 
  S7       1.0000 0.50000  0.21287  0.46221  Biso   1.000  S 
  S8       1.0000 0.50000  0.78713  0.53779  Biso   1.000  S 
  S9       1.0000 0.00000  0.87054  0.90917  Biso   1.000  S 
  S10      1.0000 0.00000  0.12946  0.09083  Biso   1.000  S 
  S11      1.0000 0.00000  0.37054  0.59083  Biso   1.000  S 
  S12      1.0000 0.00000  0.62946  0.40917  Biso   1.000  S 
  S13      1.0000 0.23718  0.54722  0.81781  Biso   1.000  S 
  S14      1.0000 0.23718  0.45278  0.18219  Biso   1.000  S 
  S15      1.0000 0.76282  0.04722  0.68219  Biso   1.000  S 
  S16      1.0000 0.76282  0.95278  0.31781  Biso   1.000  S 
  S17      1.0000 0.76282  0.45278  0.18219  Biso   1.000  S 
  S18      1.0000 0.76282  0.54722  0.81781  Biso   1.000  S 
  S19      1.0000 0.23718  0.95278  0.31781  Biso   1.000  S 
  S20      1.0000 0.23718  0.04722  0.68219  Biso   1.000  S 
