data_image0
_cell_length_a       10.0664
_cell_length_b       10.0664
_cell_length_c       10.0664
_cell_angle_alpha    28.9422
_cell_angle_beta     28.9422
_cell_angle_gamma    28.9422

_symmetry_space_group_name_H-M    "P 1"
_symmetry_int_tables_number       1

loop_
  _symmetry_equiv_pos_as_xyz
  'x, y, z'

loop_
  _atom_site_label
  _atom_site_occupancy
  _atom_site_fract_x
  _atom_site_fract_y
  _atom_site_fract_z
  _atom_site_thermal_displace_type
  _atom_site_B_iso_or_equiv
  _atom_site_type_symbol
  K1       1.0000 0.71093  0.71093  0.71093  Biso   1.000  K 
  K2       1.0000 0.28907  0.28907  0.28907  Biso   1.000  K 
  Ni1      1.0000 0.83474  0.83474  0.83474  Biso   1.000  Ni
  Ni2      1.0000 0.16526  0.16526  0.16526  Biso   1.000  Ni
  As1      1.0000 0.44010  0.44010  0.44010  Biso   1.000  As
  As2      1.0000 0.55990  0.55990  0.55990  Biso   1.000  As
  O1       1.0000 0.53617  0.21457  0.87303  Biso   1.000  O 
  O2       1.0000 0.21457  0.87303  0.53617  Biso   1.000  O 
  O3       1.0000 0.87303  0.53617  0.21457  Biso   1.000  O 
  O4       1.0000 0.46383  0.78543  0.12697  Biso   1.000  O 
  O5       1.0000 0.78543  0.12697  0.46383  Biso   1.000  O 
  O6       1.0000 0.12697  0.46383  0.78543  Biso   1.000  O 
  O7       1.0000 0.38128  0.38128  0.38128  Biso   1.000  O 
  O8       1.0000 0.61872  0.61872  0.61872  Biso   1.000  O 
