data_image0
_cell_length_a       6.74062
_cell_length_b       7.14945
_cell_length_c       10.9905
_cell_angle_alpha    90
_cell_angle_beta     90
_cell_angle_gamma    90

_symmetry_space_group_name_H-M    "P 1"
_symmetry_int_tables_number       1

loop_
  _symmetry_equiv_pos_as_xyz
  'x, y, z'

loop_
  _atom_site_label
  _atom_site_occupancy
  _atom_site_fract_x
  _atom_site_fract_y
  _atom_site_fract_z
  _atom_site_thermal_displace_type
  _atom_site_B_iso_or_equiv
  _atom_site_type_symbol
  Mo1      1.0000 0.25000  0.45212  0.65978  Biso   1.000  Mo
  Mo2      1.0000 0.25000  0.04788  0.15978  Biso   1.000  Mo
  Mo3      1.0000 0.75000  0.54788  0.34022  Biso   1.000  Mo
  Mo4      1.0000 0.75000  0.95212  0.84022  Biso   1.000  Mo
  As1      1.0000 0.75000  0.54439  0.65384  Biso   1.000  As
  As2      1.0000 0.75000  0.95561  0.15384  Biso   1.000  As
  As3      1.0000 0.25000  0.45561  0.34616  Biso   1.000  As
  As4      1.0000 0.25000  0.04439  0.84616  Biso   1.000  As
  K1       1.0000 0.00000  0.00000  0.50000  Biso   1.000  K 
  K2       1.0000 0.50000  0.50000  0.00000  Biso   1.000  K 
  K3       1.0000 0.50000  0.00000  0.50000  Biso   1.000  K 
  K4       1.0000 0.00000  0.50000  0.00000  Biso   1.000  K 
  O1       1.0000 0.95668  0.39877  0.64928  Biso   1.000  O 
  O2       1.0000 0.54332  0.10123  0.14928  Biso   1.000  O 
  O3       1.0000 0.45668  0.60123  0.35072  Biso   1.000  O 
  O4       1.0000 0.04332  0.89877  0.85072  Biso   1.000  O 
  O5       1.0000 0.04332  0.60123  0.35072  Biso   1.000  O 
  O6       1.0000 0.45668  0.89877  0.85072  Biso   1.000  O 
  O7       1.0000 0.54332  0.39877  0.64928  Biso   1.000  O 
  O8       1.0000 0.95668  0.10123  0.14928  Biso   1.000  O 
  O9       1.0000 0.25000  0.15176  0.70629  Biso   1.000  O 
  O10      1.0000 0.25000  0.34824  0.20629  Biso   1.000  O 
  O11      1.0000 0.75000  0.84824  0.29371  Biso   1.000  O 
  O12      1.0000 0.75000  0.65176  0.79371  Biso   1.000  O 
  O13      1.0000 0.25000  0.31515  0.47245  Biso   1.000  O 
  O14      1.0000 0.25000  0.18485  0.97245  Biso   1.000  O 
  O15      1.0000 0.75000  0.68485  0.52755  Biso   1.000  O 
  O16      1.0000 0.75000  0.81515  0.02755  Biso   1.000  O 
  O17      1.0000 0.25000  0.67114  0.59050  Biso   1.000  O 
  O18      1.0000 0.25000  0.82886  0.09050  Biso   1.000  O 
  O19      1.0000 0.75000  0.32886  0.40950  Biso   1.000  O 
  O20      1.0000 0.75000  0.17114  0.90950  Biso   1.000  O 
  O21      1.0000 0.25000  0.51454  0.81208  Biso   1.000  O 
  O22      1.0000 0.25000  0.98546  0.31208  Biso   1.000  O 
  O23      1.0000 0.75000  0.48546  0.18792  Biso   1.000  O 
  O24      1.0000 0.75000  0.01454  0.68792  Biso   1.000  O 
